ac-acetilsalicilico.xyz
 OpenBabel10242510533D

 21 21  0  0  0  0  0  0  0  0999 V2000
    1.0555   -0.2589   -1.0459 C   0  0  0  0  0  0  0  0  0  0  0  0
    7.4462    0.5614   -1.3765 C   0  0  0  0  0  0  0  0  0  0  0  0
    6.7977   -0.5733   -0.8953 C   0  0  0  0  0  0  0  0  0  0  0  0
    6.7091    1.7082   -1.6839 C   0  0  0  0  0  0  0  0  0  0  0  0
    5.4122   -0.5726   -0.7293 C   0  0  0  0  0  0  0  0  0  0  0  0
    2.5068   -0.5392   -1.2992 C   0  0  0  0  0  0  0  0  0  0  0  0
    5.3146    1.7240   -1.5185 C   0  0  0  0  0  0  0  0  0  0  0  0
    4.6672    0.5612   -1.0722 C   0  0  0  0  0  0  0  0  0  0  0  0
    4.6142    2.9907   -1.8531 C   0  0  0  0  0  0  0  0  0  0  0  0
    2.9315   -1.5793   -1.7807 O   0  0  0  0  0  0  0  0  0  0  0  0
    5.0343    3.7769   -2.6849 O   0  0  0  0  0  0  0  0  0  0  0  0
    3.5229    3.2388   -1.0997 O   0  0  0  0  0  0  0  0  0  0  0  0
    3.2618    0.5762   -0.9151 O   0  0  0  0  0  0  0  0  0  0  0  0
    0.4785   -1.1736   -1.2119 H   0  0  0  0  0  0  0  0  0  0  0  0
    0.7034    0.5113   -1.7355 H   0  0  0  0  0  0  0  0  0  0  0  0
    0.9087    0.0519   -0.0086 H   0  0  0  0  0  0  0  0  0  0  0  0
    8.5246    0.5562   -1.5133 H   0  0  0  0  0  0  0  0  0  0  0  0
    7.3709   -1.4668   -0.6552 H   0  0  0  0  0  0  0  0  0  0  0  0
    7.2274    2.5927   -2.0498 H   0  0  0  0  0  0  0  0  0  0  0  0
    4.9326   -1.4712   -0.3512 H   0  0  0  0  0  0  0  0  0  0  0  0
    3.3353    2.5496   -0.4352 H   0  0  0  0  0  0  0  0  0  0  0  0
  1 16  1  0  0  0  0
  2  3  1  0  0  0  0
  3  5  2  0  0  0  0
  3 18  1  0  0  0  0
  4  7  1  0  0  0  0
  4  2  2  0  0  0  0
  5 20  1  0  0  0  0
  6  1  1  0  0  0  0
  6 13  1  0  0  0  0
  7  8  2  0  0  0  0
  8 13  1  0  0  0  0
  8  5  1  0  0  0  0
  9  7  1  0  0  0  0
  9 12  1  0  0  0  0
 10  6  2  0  0  0  0
 11  9  2  0  0  0  0
 12 21  1  0  0  0  0
 14  1  1  0  0  0  0
 15  1  1  0  0  0  0
 17  2  1  0  0  0  0
 19  4  1  0  0  0  0
M  END
