ac-ascorbico.xyz
 OpenBabel10242510573D

 20 20  0  0  1  0  0  0  0  0999 V2000
    1.4826    0.8697   -0.2109 C   0  0  0  0  0  0  0  0  0  0  0  0
    0.3832    0.5238   -1.2264 C   0  0  1  0  0  0  0  0  0  0  0  0
   -0.1294   -0.5590   -3.4674 C   0  0  0  0  0  0  0  0  0  0  0  0
   -0.3552   -1.8667   -3.6001 C   0  0  0  0  0  0  0  0  0  0  0  0
    0.9086   -0.2869   -2.4331 C   0  0  2  0  0  0  0  0  0  0  0  0
    0.5504   -2.5443   -2.6501 C   0  0  0  0  0  0  0  0  0  0  0  0
    2.0655   -0.2916    0.3707 O   0  0  0  0  0  0  0  0  0  0  0  0
   -0.6494   -0.2011   -0.5327 O   0  0  0  0  0  0  0  0  0  0  0  0
   -0.7088    0.4794   -4.1438 O   0  0  0  0  0  0  0  0  0  0  0  0
   -1.2171   -2.5255   -4.4257 O   0  0  0  0  0  0  0  0  0  0  0  0
    0.6209   -3.7435   -2.4504 O   0  0  0  0  0  0  0  0  0  0  0  0
    1.2986   -1.6032   -2.0093 O   0  0  0  0  0  0  0  0  0  0  0  0
    1.0678    1.4660    0.6089 H   0  0  0  0  0  0  0  0  0  0  0  0
    2.2807    1.4472   -0.6862 H   0  0  0  0  0  0  0  0  0  0  0  0
   -0.0595    1.4627   -1.5794 H   0  0  0  0  0  0  0  0  0  0  0  0
    1.7758    0.2079   -2.8855 H   0  0  0  0  0  0  0  0  0  0  0  0
    1.4125   -0.6701    0.9850 H   0  0  0  0  0  0  0  0  0  0  0  0
   -0.2888   -1.0909   -0.3595 H   0  0  0  0  0  0  0  0  0  0  0  0
   -1.4496    0.1601   -4.6844 H   0  0  0  0  0  0  0  0  0  0  0  0
   -1.6900   -1.8937   -4.9836 H   0  0  0  0  0  0  0  0  0  0  0  0
  1  7  1  0  0  0  0
  1 13  1  0  0  0  0
  2 15  1  6  0  0  0
  2  8  1  0  0  0  0
  2  1  1  0  0  0  0
  3  5  1  0  0  0  0
  4  3  2  0  0  0  0
  4  6  1  0  0  0  0
  5 16  1  6  0  0  0
  5 12  1  0  0  0  0
  5  2  1  0  0  0  0
  6 11  2  0  0  0  0
  6 12  1  0  0  0  0
  7 17  1  0  0  0  0
  8 18  1  0  0  0  0
  9  3  1  0  0  0  0
 10  4  1  0  0  0  0
 14  1  1  0  0  0  0
 19  9  1  0  0  0  0
 20 10  1  0  0  0  0
M  END
