ac-tanico.xyz
 OpenBabel10242511033D

174184  0  0  1  0  0  0  0  0999 V2000
   -6.3523    3.8243   -3.0835 C   0  0  0  0  0  0  0  0  0  0  0  0
   -5.0157    2.5155   -1.5430 C   0  0  0  0  0  0  0  0  0  0  0  0
  -10.3648   -9.3673   -9.6408 C   0  0  0  0  0  0  0  0  0  0  0  0
  -12.4827   -9.8829   -8.5815 C   0  0  0  0  0  0  0  0  0  0  0  0
   -8.8929   -5.2461    7.3516 C   0  0  0  0  0  0  0  0  0  0  0  0
   -7.0142   -3.7635    7.0869 C   0  0  0  0  0  0  0  0  0  0  0  0
   -7.0927    0.8573   -6.2197 C   0  0  0  0  0  0  0  0  0  0  0  0
   -8.6309    2.7310   -6.0377 C   0  0  0  0  0  0  0  0  0  0  0  0
   -0.3712   -1.9257    0.0027 C   0  0  0  0  0  0  0  0  0  0  0  0
    0.3672   -3.9222    1.1437 C   0  0  0  0  0  0  0  0  0  0  0  0
   -4.4181   -2.6782   -5.1988 C   0  0  0  0  0  0  0  0  0  0  0  0
  -13.6861   -3.8084   -5.6292 C   0  0  0  0  0  0  0  0  0  0  0  0
   -9.7428   -8.0629    1.1338 C   0  0  0  0  0  0  0  0  0  0  0  0
  -13.5205   -0.1377   -2.1276 C   0  0  0  0  0  0  0  0  0  0  0  0
   -5.5517   -7.1989   -0.5513 C   0  0  0  0  0  0  0  0  0  0  0  0
   -5.8142   -1.9869   -3.2830 C   0  0  0  0  0  0  0  0  0  0  0  0
  -11.8243   -5.1736   -6.4225 C   0  0  0  0  0  0  0  0  0  0  0  0
   -8.3520   -6.4514    2.3508 C   0  0  0  0  0  3  0  0  0  0  0  0
  -11.3646   -0.5220   -3.0991 C   0  0  0  0  0  0  0  0  0  0  0  0
   -4.8397   -5.1410    0.5247 C   0  0  0  0  0  0  0  0  0  0  0  0
   -7.3163   -5.0542   -2.9489 C   0  0  0  0  0  0  0  0  0  0  0  0
   -6.0051    2.5898   -2.5278 C   0  0  0  0  0  0  0  0  0  0  0  0
  -11.4505   -8.9725   -8.8330 C   0  0  0  0  0  0  0  0  0  0  0  0
   -7.7312   -4.9096    6.6473 C   0  0  0  0  0  0  0  0  0  0  0  0
   -8.3776    1.3536   -5.9111 C   0  0  0  0  0  0  0  0  0  0  0  0
   -0.6627   -3.1904    0.5276 C   0  0  0  0  0  0  0  0  0  0  0  0
   -5.2550   -2.9631   -4.1635 C   0  0  0  0  0  0  0  0  0  0  0  0
  -12.2976   -4.0283   -5.7759 C   0  0  0  0  0  0  0  0  0  0  0  0
   -9.2410   -6.7357    1.2934 C   0  0  2  0  0  3  0  0  0  0  0  0
  -12.4456   -1.0233   -2.3477 C   0  0  0  0  0  0  0  0  0  0  0  0
   -5.8929   -5.9464   -0.0833 C   0  0  0  0  0  0  0  0  0  0  0  0
   -5.6660    4.9671   -2.6795 C   0  0  0  0  0  0  0  0  0  0  0  0
   -4.3950    3.6672   -1.0944 C   0  0  0  0  0  0  0  0  0  0  0  0
  -10.2975  -10.6676  -10.1476 C   0  0  0  0  0  0  0  0  0  0  0  0
  -12.3707  -11.1905   -9.0453 C   0  0  0  0  0  0  0  0  0  0  0  0
   -9.4499   -4.3395    8.2746 C   0  0  0  0  0  0  0  0  0  0  0  0
   -7.5656   -2.8841    8.0394 C   0  0  0  0  0  0  0  0  0  0  0  0
   -6.0736    1.7463   -6.5556 C   0  0  0  0  0  0  0  0  0  0  0  0
   -7.5793    3.6062   -6.3428 C   0  0  0  0  0  0  0  0  0  0  0  0
    0.9072   -1.3676    0.0910 C   0  0  0  0  0  0  0  0  0  0  0  0
    1.6561   -3.3585    1.2267 C   0  0  0  0  0  0  0  0  0  0  0  0
   -4.0137   -1.3932   -5.2879 C   0  0  0  0  0  0  0  0  0  0  0  0
  -14.5400   -4.8913   -5.7237 C   0  0  0  0  0  0  0  0  0  0  0  0
   -9.7757   -8.8744    2.2460 C   0  0  0  0  0  0  0  0  0  0  0  0
  -13.6264    1.0438   -2.8805 C   0  0  0  0  0  0  0  0  0  0  0  0
   -4.2616   -7.6926   -0.3160 C   0  0  0  0  0  0  0  0  0  0  0  0
   -5.4220   -0.6793   -3.4317 C   0  0  0  0  0  0  0  0  0  0  0  0
  -12.7272   -6.2013   -6.6664 C   0  0  0  0  0  0  0  0  0  0  0  0
   -8.4920   -7.1963    3.5155 C   0  0  2  0  0  3  0  0  0  0  0  0
  -11.4878    0.6434   -3.8897 C   0  0  0  0  0  0  0  0  0  0  0  0
   -3.5140   -5.6207    0.6565 C   0  0  0  0  0  0  0  0  0  0  0  0
   -8.5854   -4.6927   -3.6378 C   0  0  2  0  0  0  0  0  0  0  0  0
   -4.7075    4.8916   -1.6672 C   0  0  0  0  0  0  0  0  0  0  0  0
  -11.2909  -11.5909   -9.8255 C   0  0  0  0  0  0  0  0  0  0  0  0
   -8.8247   -3.1303    8.5784 C   0  0  0  0  0  0  0  0  0  0  0  0
   -6.2980    3.1146   -6.5509 C   0  0  0  0  0  0  0  0  0  0  0  0
    1.9173   -2.0900    0.7166 C   0  0  0  0  0  0  0  0  0  0  0  0
   -4.4275   -0.4172   -4.3571 C   0  0  0  0  0  0  0  0  0  0  0  0
  -14.0209   -6.1102   -6.1379 C   0  0  0  0  0  0  0  0  0  0  0  0
   -9.4043   -8.2706    3.4604 C   0  0  1  0  0  3  0  0  0  0  0  0
  -12.6481    1.4023   -3.8074 C   0  0  0  0  0  0  0  0  0  0  0  0
   -3.2601   -6.9410    0.3203 C   0  0  0  0  0  0  0  0  0  0  0  0
   -9.3565   -3.4895   -3.0558 C   0  0  2  0  0  0  0  0  0  0  0  0
   -9.9694   -3.6427   -1.3146 C   0  0  1  0  0  0  0  0  0  0  0  0
  -11.0837   -4.4885   -1.6713 C   0  0  2  0  0  0  0  0  0  0  0  0
   -5.5446   -4.3912   -4.0358 C   0  0  0  0  0  0  0  0  0  0  0  0
   -6.7099    1.3087   -2.8794 C   0  0  0  0  0  0  0  0  0  0  0  0
  -11.4251   -7.5942   -8.2513 C   0  0  0  0  0  0  0  0  0  0  0  0
   -7.3144   -5.6093    5.3470 C   0  0  0  0  0  0  0  0  0  0  0  0
   -9.3322    0.4184   -5.2151 C   0  0  0  0  0  0  0  0  0  0  0  0
   -2.0411   -3.7585    0.2848 C   0  0  0  0  0  0  0  0  0  0  0  0
  -11.4111   -3.0668   -5.0681 C   0  0  0  0  0  0  0  0  0  0  0  0
  -10.1128   -5.6389    0.6336 C   0  0  0  0  0  0  0  0  0  0  0  0
  -12.5463   -2.4689   -1.8065 C   0  0  0  0  0  0  0  0  0  0  0  0
   -7.2990   -5.3856   -0.3245 C   0  0  0  0  0  0  0  0  0  0  0  0
   -9.8697   -5.8183   -2.0363 C   0  0  1  0  0  0  0  0  0  0  0  0
   -5.9190    6.1885   -3.2424 O   0  0  0  0  0  0  0  0  0  0  0  0
   -3.5065    3.5593   -0.0672 O   0  0  0  0  0  0  0  0  0  0  0  0
   -9.2574  -11.0565  -10.9450 O   0  0  0  0  0  0  0  0  0  0  0  0
  -13.3416  -12.0778   -8.6783 O   0  0  0  0  0  0  0  0  0  0  0  0
  -10.6506   -4.6915    8.8261 O   0  0  0  0  0  0  0  0  0  0  0  0
   -6.9293   -1.7230    8.3943 O   0  0  0  0  0  0  0  0  0  0  0  0
   -4.7938    1.3549   -6.8323 O   0  0  0  0  0  0  0  0  0  0  0  0
   -7.7675    4.9602   -6.2918 O   0  0  0  0  0  0  0  0  0  0  0  0
    1.2272   -0.1262   -0.3808 O   0  0  0  0  0  0  0  0  0  0  0  0
    2.6660   -4.0321    1.8053 O   0  0  0  0  0  0  0  0  0  0  0  0
   -3.2259   -1.0171   -6.3492 O   0  0  0  0  0  0  0  0  0  0  0  0
  -15.8264   -4.7996   -5.2772 O   0  0  0  0  0  0  0  0  0  0  0  0
  -10.5331  -10.0151    2.2731 O   0  0  0  0  0  0  0  0  0  0  0  0
  -14.7245    1.8619   -2.7958 O   0  0  0  0  0  0  0  0  0  0  0  0
   -3.9108   -8.9449   -0.7488 O   0  0  0  0  0  0  0  0  0  0  0  0
   -4.0922    6.0315   -1.2368 O   0  0  0  0  0  0  0  0  0  0  0  0
  -11.2579  -12.8867  -10.2624 O   0  0  0  0  0  0  0  0  0  0  0  0
   -9.3849   -2.1846    9.3934 O   0  0  0  0  0  0  0  0  0  0  0  0
   -5.2208    3.9556   -6.6449 O   0  0  0  0  0  0  0  0  0  0  0  0
    3.1674   -1.5382    0.8157 O   0  0  0  0  0  0  0  0  0  0  0  0
   -3.8134    0.8008   -4.3856 O   0  0  0  0  0  0  0  0  0  0  0  0
  -14.6753   -7.2693   -5.8117 O   0  0  0  0  0  0  0  0  0  0  0  0
  -10.5458   -8.0379    4.2627 O   0  0  0  0  0  0  0  0  0  0  0  0
  -12.8669    2.4699   -4.6379 O   0  0  0  0  0  0  0  0  0  0  0  0
   -2.0471   -7.5208    0.5630 O   0  0  0  0  0  0  0  0  0  0  0  0
   -5.3596   -5.2749   -4.7968 O   0  0  0  0  0  0  0  0  0  0  0  0
   -7.8930    1.2682   -3.1380 O   0  0  0  0  0  0  0  0  0  0  0  0
  -10.5882   -6.7641   -8.5702 O   0  0  0  0  0  0  0  0  0  0  0  0
   -6.3014   -5.2787    4.7429 O   0  0  0  0  0  0  0  0  0  0  0  0
   -9.0065   -0.7290   -4.9335 O   0  0  0  0  0  0  0  0  0  0  0  0
   -2.7612   -3.2677   -0.5843 O   0  0  0  0  0  0  0  0  0  0  0  0
  -11.7649   -1.9044   -5.1097 O   0  0  0  0  0  0  0  0  0  0  0  0
  -11.2745   -6.0258    0.4828 O   0  0  0  0  0  0  0  0  0  0  0  0
  -13.2640   -2.6991   -0.8405 O   0  0  0  0  0  0  0  0  0  0  0  0
   -7.3635   -4.1870    0.0008 O   0  0  0  0  0  0  0  0  0  0  0  0
   -6.1041   -4.4292   -2.8458 O   0  0  0  0  0  0  0  0  0  0  0  0
   -5.9069    0.2541   -2.4972 O   0  0  0  0  0  0  0  0  0  0  0  0
  -12.4192   -7.4392   -7.2925 O   0  0  0  0  0  0  0  0  0  0  0  0
   -8.2663   -6.5473    4.8405 O   0  0  0  0  0  0  0  0  0  0  0  0
  -10.5026    1.0795   -4.8364 O   0  0  0  0  0  0  0  0  0  0  0  0
   -2.4013   -4.8363    1.0891 O   0  0  0  0  0  0  0  0  0  0  0  0
   -9.4622   -5.8166   -3.4182 O   0  0  0  0  0  0  0  0  0  0  0  0
  -10.4845   -3.6641   -4.2769 O   0  0  0  0  0  0  0  0  0  0  0  0
   -9.5621   -4.4772    0.0184 O   0  0  0  0  0  0  0  0  0  0  0  0
  -11.8606   -3.4920   -2.4722 O   0  0  0  0  0  0  0  0  0  0  0  0
   -8.3781   -6.1348   -1.0795 O   0  0  0  0  0  0  0  0  0  0  0  0
   -7.1546    3.8986   -3.8036 H   0  0  0  0  0  0  0  0  0  0  0  0
   -4.7588    1.5597   -1.1030 H   0  0  0  0  0  0  0  0  0  0  0  0
   -9.5759   -8.6503   -9.8570 H   0  0  0  0  0  0  0  0  0  0  0  0
  -13.3678   -9.6146   -8.0132 H   0  0  0  0  0  0  0  0  0  0  0  0
   -9.4129   -6.1807    7.1627 H   0  0  0  0  0  0  0  0  0  0  0  0
   -6.0544   -3.5158    6.6401 H   0  0  0  0  0  0  0  0  0  0  0  0
   -6.8872   -0.2013   -6.0947 H   0  0  0  0  0  0  0  0  0  0  0  0
   -9.6064    3.1317   -5.7770 H   0  0  0  0  0  0  0  0  0  0  0  0
   -1.1693   -1.3770   -0.5271 H   0  0  0  0  0  0  0  0  0  0  0  0
    0.1850   -4.9238    1.5104 H   0  0  0  0  0  0  0  0  0  0  0  0
   -4.0942   -3.4750   -5.8677 H   0  0  0  0  0  0  0  0  0  0  0  0
  -14.0652   -2.8407   -5.3068 H   0  0  0  0  0  0  0  0  0  0  0  0
  -10.2981   -8.3630    0.2424 H   0  0  0  0  0  0  0  0  0  0  0  0
  -14.2878   -0.3879   -1.4003 H   0  0  0  0  0  0  0  0  0  0  0  0
   -6.2812   -7.7784   -1.1095 H   0  0  0  0  0  0  0  0  0  0  0  0
   -6.4952   -2.2273   -2.4766 H   0  0  0  0  0  0  0  0  0  0  0  0
  -10.7708   -5.2712   -6.6524 H   0  0  0  0  0  0  0  0  0  0  0  0
   -7.6889   -5.6013    2.3198 H   0  0  0  0  0  0  0  0  0  0  0  0
  -10.4797   -1.1218   -3.2144 H   0  0  0  0  0  0  0  0  0  0  0  0
   -5.0461   -4.1262    0.8675 H   0  0  0  0  0  0  0  0  0  0  0  0
   -7.1660   -6.1371   -2.9053 H   0  0  0  0  0  0  0  0  0  0  0  0
   -7.6637   -4.5701   -2.0783 H   0  0  0  0  0  0  0  0  0  0  0  0
   -8.4042   -4.5857   -4.7150 H   0  0  0  0  0  0  0  0  0  0  0  0
   -8.8644   -2.5293   -3.2082 H   0  0  0  0  0  0  0  0  0  0  0  0
  -10.1621   -2.6292   -0.9519 H   0  0  0  0  0  0  0  0  0  0  0  0
  -11.7656   -4.7287   -0.8747 H   0  0  0  0  0  0  0  0  0  0  0  0
  -10.3977   -6.7604   -1.8686 H   0  0  0  0  0  0  0  0  0  0  0  0
   -6.3403    6.0418   -4.1125 H   0  0  0  0  0  0  0  0  0  0  0  0
   -3.5991    2.6694    0.3137 H   0  0  0  0  0  0  0  0  0  0  0  0
   -8.6368  -10.3124  -11.0361 H   0  0  0  0  0  0  0  0  0  0  0  0
  -12.9088  -12.9540   -8.6839 H   0  0  0  0  0  0  0  0  0  0  0  0
  -11.2098   -3.9025    8.8851 H   0  0  0  0  0  0  0  0  0  0  0  0
   -5.9680   -1.8472    8.3652 H   0  0  0  0  0  0  0  0  0  0  0  0
   -4.7131    0.4020   -6.6612 H   0  0  0  0  0  0  0  0  0  0  0  0
   -8.7184    5.1419   -6.3877 H   0  0  0  0  0  0  0  0  0  0  0  0
    0.4160    0.3391   -0.6455 H   0  0  0  0  0  0  0  0  0  0  0  0
    2.3572   -4.8971    2.1401 H   0  0  0  0  0  0  0  0  0  0  0  0
   -3.1270   -1.8066   -6.9290 H   0  0  0  0  0  0  0  0  0  0  0  0
  -15.9084   -4.0199   -4.7038 H   0  0  0  0  0  0  0  0  0  0  0  0
  -11.2006  -10.0130    1.5654 H   0  0  0  0  0  0  0  0  0  0  0  0
  -15.4095    1.4091   -2.2746 H   0  0  0  0  0  0  0  0  0  0  0  0
   -4.5851   -9.2386   -1.3891 H   0  0  0  0  0  0  0  0  0  0  0  0
   -4.4989    6.7488   -1.7603 H   0  0  0  0  0  0  0  0  0  0  0  0
  -10.8275  -12.8622  -11.1387 H   0  0  0  0  0  0  0  0  0  0  0  0
  -10.3459   -2.1718    9.2890 H   0  0  0  0  0  0  0  0  0  0  0  0
   -4.4411    3.3656   -6.5854 H   0  0  0  0  0  0  0  0  0  0  0  0
    3.1019   -0.6613    0.3944 H   0  0  0  0  0  0  0  0  0  0  0  0
   -3.1159    0.7101   -5.0631 H   0  0  0  0  0  0  0  0  0  0  0  0
  -13.9617   -7.9006   -5.6013 H   0  0  0  0  0  0  0  0  0  0  0  0
  -11.2001   -7.7077    3.6055 H   0  0  0  0  0  0  0  0  0  0  0  0
  -13.7707    2.7757   -4.4206 H   0  0  0  0  0  0  0  0  0  0  0  0
   -2.1629   -8.4607    0.3106 H   0  0  0  0  0  0  0  0  0  0  0  0
  1 32  2  0  0  0  0
  1 22  1  0  0  0  0
  2124  1  0  0  0  0
  2 33  1  0  0  0  0
  3 23  1  0  0  0  0
  4126  1  0  0  0  0
  5 36  1  0  0  0  0
  6 37  2  0  0  0  0
  7129  1  0  0  0  0
  7 25  1  0  0  0  0
  8 25  2  0  0  0  0
  8130  1  0  0  0  0
  9 40  2  0  0  0  0
  9 26  1  0  0  0  0
 10 41  1  0  0  0  0
 10132  1  0  0  0  0
 11 27  1  0  0  0  0
 12134  1  0  0  0  0
 13 29  1  0  0  0  0
 13 44  2  0  0  0  0
 14136  1  0  0  0  0
 15 46  2  0  0  0  0
 15 31  1  0  0  0  0
 16138  1  0  0  0  0
 17 28  1  0  0  0  0
 18 49  1  0  0  0  0
 19 30  2  0  0  0  0
 20 51  1  0  0  0  0
 20142  1  0  0  0  0
 21143  1  0  0  0  0
 21112  1  0  0  0  0
 21144  1  0  0  0  0
 22  2  2  0  0  0  0
 23  4  2  0  0  0  0
 23 68  1  0  0  0  0
 24  6  1  0  0  0  0
 24  5  2  0  0  0  0
 25 70  1  0  0  0  0
 26 10  2  0  0  0  0
 27 66  1  0  0  0  0
 27 16  2  0  0  0  0
 28 12  2  0  0  0  0
 28 72  1  0  0  0  0
 29 73  1  1  0  0  0
 29 18  1  0  0  0  0
 30 14  1  0  0  0  0
 30 74  1  0  0  0  0
 31 20  2  0  0  0  0
 32 53  1  0  0  0  0
 33 78  1  0  0  0  0
 34 54  1  0  0  0  0
 34  3  2  0  0  0  0
 35 80  1  0  0  0  0
 35  4  1  0  0  0  0
 36 55  2  0  0  0  0
 36 81  1  0  0  0  0
 37 82  1  0  0  0  0
 37 55  1  0  0  0  0
 38 56  1  0  0  0  0
 38  7  2  0  0  0  0
 39 84  1  0  0  0  0
 39  8  1  0  0  0  0
 40 57  1  0  0  0  0
 41 86  1  0  0  0  0
 42 11  2  0  0  0  0
 42 58  1  0  0  0  0
 43 12  1  0  0  0  0
 43 88  1  0  0  0  0
 44 89  1  0  0  0  0
 44 60  1  0  0  0  0
 45 90  1  0  0  0  0
 45 14  2  0  0  0  0
 46 62  1  0  0  0  0
 47 16  1  0  0  0  0
 47113  1  0  0  0  0
 48 17  2  0  0  0  0
 48 59  1  0  0  0  0
 49115  1  1  0  0  0
 50 61  2  0  0  0  0
 50 19  1  0  0  0  0
 51117  1  0  0  0  0
 52145  1  6  0  0  0
 52118  1  0  0  0  0
 52 63  1  0  0  0  0
 52 21  1  0  0  0  0
 53 92  1  0  0  0  0
 53 33  2  0  0  0  0
 54 35  2  0  0  0  0
 55 94  1  0  0  0  0
 56 39  2  0  0  0  0
 57 96  1  0  0  0  0
 57 41  2  0  0  0  0
 58 47  2  0  0  0  0
 59 98  1  0  0  0  0
 59 43  2  0  0  0  0
 60 49  1  0  0  0  0
 60 99  1  6  0  0  0
 61 45  1  0  0  0  0
 62101  1  0  0  0  0
 62 51  2  0  0  0  0
 63146  1  6  0  0  0
 63 64  1  0  0  0  0
 64147  1  1  0  0  0
 64120  1  0  0  0  0
 65 64  1  0  0  0  0
 65148  1  1  0  0  0
 66112  1  0  0  0  0
 67 22  1  0  0  0  0
 67113  1  0  0  0  0
 68114  1  0  0  0  0
 69 24  1  0  0  0  0
 70106  2  0  0  0  0
 70116  1  0  0  0  0
 71 26  1  0  0  0  0
 71117  1  0  0  0  0
 72119  1  0  0  0  0
 74110  2  0  0  0  0
 75 31  1  0  0  0  0
 75111  2  0  0  0  0
 76149  1  1  0  0  0
 76 65  1  0  0  0  0
 76122  1  0  0  0  0
 77 32  1  0  0  0  0
 78151  1  0  0  0  0
 79 34  1  0  0  0  0
 81154  1  0  0  0  0
 83156  1  0  0  0  0
 83 38  1  0  0  0  0
 85 40  1  0  0  0  0
 86159  1  0  0  0  0
 87 42  1  0  0  0  0
 88161  1  0  0  0  0
 90163  1  0  0  0  0
 91 46  1  0  0  0  0
 93 54  1  0  0  0  0
 95168  1  0  0  0  0
 95 56  1  0  0  0  0
 97 58  1  0  0  0  0
 98171  1  0  0  0  0
100173  1  0  0  0  0
100 61  1  0  0  0  0
102 66  2  0  0  0  0
103 67  2  0  0  0  0
104 68  2  0  0  0  0
105 69  2  0  0  0  0
107 71  2  0  0  0  0
108 72  2  0  0  0  0
109 73  2  0  0  0  0
114 48  1  0  0  0  0
115 69  1  0  0  0  0
116 50  1  0  0  0  0
118 76  1  0  0  0  0
119 63  1  0  0  0  0
120 73  1  0  0  0  0
121 74  1  0  0  0  0
121 65  1  0  0  0  0
122 75  1  0  0  0  0
123  1  1  0  0  0  0
125  3  1  0  0  0  0
127  5  1  0  0  0  0
128  6  1  0  0  0  0
131  9  1  0  0  0  0
133 11  1  0  0  0  0
135 13  1  0  0  0  0
137 15  1  0  0  0  0
139 17  1  0  0  0  0
140 18  1  0  0  0  0
141 19  1  0  0  0  0
150 77  1  0  0  0  0
152 79  1  0  0  0  0
153 80  1  0  0  0  0
155 82  1  0  0  0  0
157 84  1  0  0  0  0
158 85  1  0  0  0  0
160 87  1  0  0  0  0
162 89  1  0  0  0  0
164 91  1  0  0  0  0
165 92  1  0  0  0  0
166 93  1  0  0  0  0
167 94  1  0  0  0  0
169 96  1  0  0  0  0
170 97  1  0  0  0  0
172 99  1  0  0  0  0
174101  1  0  0  0  0
M  END
