acrilato-pintura.xyz
 OpenBabel10242511003D

141139  0  0  1  0  0  0  0  0999 V2000
    9.3636   -5.0298    4.8892 C   0  0  0  0  0  0  0  0  0  0  0  0
   38.7088  -19.2460  -10.8410 C   0  0  0  0  0  0  0  0  0  0  0  0
   24.4552   -3.4974   -4.0144 C   0  0  0  0  0  0  0  0  0  0  0  0
   24.3520   -5.5586   -2.5954 C   0  0  0  0  0  0  0  0  0  0  0  0
   10.3827   -5.7762    4.0498 C   0  0  0  0  0  0  0  0  0  0  0  0
   37.7759  -18.5100   -9.8998 C   0  0  0  0  0  0  0  0  0  0  0  0
   10.8279   -4.9210    2.8731 C   0  0  0  0  0  0  0  0  0  0  0  0
   37.5203  -17.0986  -10.4058 C   0  0  0  0  0  0  0  0  0  0  0  0
   11.8509   -5.6654    2.0309 C   0  0  0  0  0  0  0  0  0  0  0  0
   36.5856  -16.3581   -9.4648 C   0  0  0  0  0  0  0  0  0  0  0  0
   12.2866   -4.8012    0.8606 C   0  0  0  0  0  0  0  0  0  0  0  0
   36.3387  -14.9531   -9.9836 C   0  0  0  0  0  0  0  0  0  0  0  0
   13.3075   -5.5416    0.0184 C   0  0  0  0  0  0  0  0  0  0  0  0
   35.4055  -14.2133   -9.0474 C   0  0  0  0  0  0  0  0  0  0  0  0
   13.7350   -4.6679   -1.1477 C   0  0  0  0  0  0  0  0  0  0  0  0
   35.1687  -12.8109   -9.5775 C   0  0  0  0  0  0  0  0  0  0  0  0
   14.7502   -5.4071   -1.9839 C   0  0  0  0  0  0  0  0  0  0  0  0
   34.2361  -12.0777   -8.6375 C   0  0  0  0  0  0  0  0  0  0  0  0
   15.2082   -4.5857   -3.1435 C   0  0  0  0  0  0  0  0  0  0  0  0
   33.9827  -10.7041   -9.1290 C   0  0  0  0  0  0  0  0  0  0  0  0
   16.1149   -5.0444   -4.0149 C   0  0  0  0  0  0  0  0  0  0  0  0
   33.1553   -9.8457   -8.4299 C   0  0  0  0  0  0  0  0  0  0  0  0
   16.7091   -6.4157   -3.8849 C   0  0  0  0  0  0  0  0  0  0  0  0
   32.5273  -10.2600   -7.1417 C   0  0  0  0  0  0  0  0  0  0  0  0
   16.4125   -7.2756   -5.1028 C   0  0  0  0  0  0  0  0  0  0  0  0
   32.9507   -9.3434   -6.0004 C   0  0  0  0  0  0  0  0  0  0  0  0
   16.9936   -6.6317   -6.3505 C   0  0  0  0  0  0  0  0  0  0  0  0
   32.5448   -7.9132   -6.3083 C   0  0  0  0  0  0  0  0  0  0  0  0
   18.4948   -6.4747   -6.2026 C   0  0  0  0  0  0  0  0  0  0  0  0
   31.0405   -7.8255   -6.4905 C   0  0  0  0  0  0  0  0  0  0  0  0
   19.0912   -5.8200   -7.4292 C   0  0  0  0  0  0  0  0  0  0  0  0
   30.6414   -6.4082   -6.8150 C   0  0  0  0  0  0  0  0  0  0  0  0
   20.5893   -5.6913   -7.2263 C   0  0  0  0  0  0  0  0  0  0  0  0
   29.1457   -6.3364   -6.9988 C   0  0  0  0  0  0  0  0  0  0  0  0
   21.2704   -5.0372   -8.4127 C   0  0  0  0  0  0  0  0  0  0  0  0
   28.7538   -4.9068   -7.3220 C   0  0  0  0  0  0  0  0  0  0  0  0
   26.4948   -4.9167   -3.4897 C   0  0  0  0  0  0  0  0  0  0  0  0
   29.6767   -3.2118   -0.3534 C   0  0  0  0  0  0  0  0  0  0  0  0
   22.7776   -4.9394   -8.1373 C   0  0  0  0  0  0  0  0  0  0  0  0
   27.2763   -4.8237   -7.4832 C   0  0  0  0  0  0  0  0  0  0  0  0
   26.7503   -4.0979   -2.2329 C   0  0  0  0  0  0  0  0  0  0  0  0
   28.2197   -3.2601   -0.7105 C   0  0  0  0  0  0  0  0  0  0  0  0
   24.6394   -5.7909   -5.0418 C   0  0  0  0  0  0  0  0  0  0  0  0
   24.8033   -6.1180   -7.6316 C   0  0  0  0  0  0  0  0  0  0  0  0
   25.2117   -5.2756   -6.3930 C   0  0  2  0  0  0  0  0  0  0  0  0
   24.9992   -4.9104   -3.7987 N   0  0  0  0  0  4  0  0  0  0  0  0
   30.4049   -2.6238   -1.4211 O   0  0  0  0  0  0  0  0  0  0  0  0
   28.1092   -4.0480   -1.9024 O   0  0  0  0  0  0  0  0  0  0  0  0
   23.3935   -6.2142   -7.8841 O   0  0  0  0  0  0  0  0  0  0  0  0
   26.6395   -5.2869   -6.2997 O   0  0  0  0  0  0  0  0  0  0  0  0
    0.9940    0.0959   -0.0157 Br  0  0  0  0  0 15  0  0  0  0  0  0
    9.0452   -5.6454    5.7334 H   0  0  0  0  0  0  0  0  0  0  0  0
    8.4820   -4.7776    4.2912 H   0  0  0  0  0  0  0  0  0  0  0  0
    9.7913   -4.1005    5.2788 H   0  0  0  0  0  0  0  0  0  0  0  0
   38.8916  -20.2599  -10.4763 H   0  0  0  0  0  0  0  0  0  0  0  0
   39.6692  -18.7265  -10.9171 H   0  0  0  0  0  0  0  0  0  0  0  0
   38.2736  -19.3113  -11.8432 H   0  0  0  0  0  0  0  0  0  0  0  0
   24.5603   -2.9133   -3.0989 H   0  0  0  0  0  0  0  0  0  0  0  0
   23.3873   -3.5538   -4.2437 H   0  0  0  0  0  0  0  0  0  0  0  0
   25.0071   -3.0411   -4.8354 H   0  0  0  0  0  0  0  0  0  0  0  0
   24.5838   -5.0289   -1.6682 H   0  0  0  0  0  0  0  0  0  0  0  0
   24.6333   -6.6085   -2.5379 H   0  0  0  0  0  0  0  0  0  0  0  0
   23.2947   -5.3927   -2.7287 H   0  0  0  0  0  0  0  0  0  0  0  0
    9.9452   -6.7133    3.6858 H   0  0  0  0  0  0  0  0  0  0  0  0
   11.2485   -6.0393    4.6689 H   0  0  0  0  0  0  0  0  0  0  0  0
   38.2173  -18.4727   -8.8968 H   0  0  0  0  0  0  0  0  0  0  0  0
   36.8279  -19.0548   -9.8188 H   0  0  0  0  0  0  0  0  0  0  0  0
   11.2631   -3.9817    3.2364 H   0  0  0  0  0  0  0  0  0  0  0  0
    9.9620   -4.6571    2.2533 H   0  0  0  0  0  0  0  0  0  0  0  0
   37.0799  -17.1346  -11.4100 H   0  0  0  0  0  0  0  0  0  0  0  0
   38.4685  -16.5528  -10.4886 H   0  0  0  0  0  0  0  0  0  0  0  0
   11.4200   -6.6034    1.6599 H   0  0  0  0  0  0  0  0  0  0  0  0
   12.7220   -5.9275    2.6437 H   0  0  0  0  0  0  0  0  0  0  0  0
   37.0231  -16.3115   -8.4601 H   0  0  0  0  0  0  0  0  0  0  0  0
   35.6333  -16.8957   -9.3806 H   0  0  0  0  0  0  0  0  0  0  0  0
   12.7200   -3.8630    1.2280 H   0  0  0  0  0  0  0  0  0  0  0  0
   11.4182   -4.5387    0.2443 H   0  0  0  0  0  0  0  0  0  0  0  0
   35.9004  -14.9947  -10.9882 H   0  0  0  0  0  0  0  0  0  0  0  0
   37.2883  -14.4103  -10.0651 H   0  0  0  0  0  0  0  0  0  0  0  0
   12.8780   -6.4813   -0.3524 H   0  0  0  0  0  0  0  0  0  0  0  0
   14.1791   -5.8062    0.6307 H   0  0  0  0  0  0  0  0  0  0  0  0
   35.8387  -14.1684   -8.0408 H   0  0  0  0  0  0  0  0  0  0  0  0
   34.4516  -14.7492   -8.9647 H   0  0  0  0  0  0  0  0  0  0  0  0
   14.1685   -3.7318   -0.7764 H   0  0  0  0  0  0  0  0  0  0  0  0
   12.8645   -4.4085   -1.7618 H   0  0  0  0  0  0  0  0  0  0  0  0
   34.7266  -12.8541  -10.5773 H   0  0  0  0  0  0  0  0  0  0  0  0
   36.1198  -12.2710   -9.6582 H   0  0  0  0  0  0  0  0  0  0  0  0
   14.3064   -6.3444   -2.3465 H   0  0  0  0  0  0  0  0  0  0  0  0
   15.6151   -5.6636   -1.3570 H   0  0  0  0  0  0  0  0  0  0  0  0
   34.6802  -12.0513   -7.6345 H   0  0  0  0  0  0  0  0  0  0  0  0
   33.2886  -12.6312   -8.5791 H   0  0  0  0  0  0  0  0  0  0  0  0
   14.7918   -3.5908   -3.2890 H   0  0  0  0  0  0  0  0  0  0  0  0
   34.4222  -10.3525  -10.0373 H   0  0  0  0  0  0  0  0  0  0  0  0
   16.4129   -4.4101   -4.8460 H   0  0  0  0  0  0  0  0  0  0  0  0
   32.9817   -8.8837   -8.8446 H   0  0  0  0  0  0  0  0  0  0  0  0
   16.3341   -6.9308   -2.9986 H   0  0  0  0  0  0  0  0  0  0  0  0
   17.7861   -6.3277   -3.7264 H   0  0  0  0  0  0  0  0  0  0  0  0
   32.7615  -11.2878   -6.8650 H   0  0  0  0  0  0  0  0  0  0  0  0
   31.4401  -10.2421   -7.2601 H   0  0  0  0  0  0  0  0  0  0  0  0
   15.3296   -7.4062   -5.2142 H   0  0  0  0  0  0  0  0  0  0  0  0
   16.8498   -8.2716   -4.9607 H   0  0  0  0  0  0  0  0  0  0  0  0
   34.0348   -9.4009   -5.8514 H   0  0  0  0  0  0  0  0  0  0  0  0
   32.4768   -9.6718   -5.0675 H   0  0  0  0  0  0  0  0  0  0  0  0
   16.5312   -5.6537   -6.5238 H   0  0  0  0  0  0  0  0  0  0  0  0
   16.7643   -7.2415   -7.2310 H   0  0  0  0  0  0  0  0  0  0  0  0
   33.0498   -7.5619   -7.2136 H   0  0  0  0  0  0  0  0  0  0  0  0
   32.8636   -7.2430   -5.5007 H   0  0  0  0  0  0  0  0  0  0  0  0
   18.9518   -7.4573   -6.0308 H   0  0  0  0  0  0  0  0  0  0  0  0
   18.7390   -5.8568   -5.3316 H   0  0  0  0  0  0  0  0  0  0  0  0
   30.5341   -8.1736   -5.5823 H   0  0  0  0  0  0  0  0  0  0  0  0
   30.7060   -8.4716   -7.3091 H   0  0  0  0  0  0  0  0  0  0  0  0
   18.6298   -4.8380   -7.5888 H   0  0  0  0  0  0  0  0  0  0  0  0
   18.8796   -6.4319   -8.3112 H   0  0  0  0  0  0  0  0  0  0  0  0
   31.1446   -6.0755   -7.7304 H   0  0  0  0  0  0  0  0  0  0  0  0
   30.9510   -5.7417   -6.0042 H   0  0  0  0  0  0  0  0  0  0  0  0
   21.0231   -6.6826   -7.0643 H   0  0  0  0  0  0  0  0  0  0  0  0
   20.7867   -5.0921   -6.3274 H   0  0  0  0  0  0  0  0  0  0  0  0
   28.6384   -6.6779   -6.0874 H   0  0  0  0  0  0  0  0  0  0  0  0
   28.8290   -7.0071   -7.8081 H   0  0  0  0  0  0  0  0  0  0  0  0
   20.8190   -4.0427   -8.5391 H   0  0  0  0  0  0  0  0  0  0  0  0
   21.0665   -5.5817   -9.3413 H   0  0  0  0  0  0  0  0  0  0  0  0
   29.2361   -4.5723   -8.2464 H   0  0  0  0  0  0  0  0  0  0  0  0
   29.0571   -4.2269   -6.5218 H   0  0  0  0  0  0  0  0  0  0  0  0
   26.8032   -5.9615   -3.3435 H   0  0  0  0  0  0  0  0  0  0  0  0
   27.0380   -4.5028   -4.3355 H   0  0  0  0  0  0  0  0  0  0  0  0
   30.0532   -4.2233   -0.1680 H   0  0  0  0  0  0  0  0  0  0  0  0
   29.8053   -2.6111    0.5483 H   0  0  0  0  0  0  0  0  0  0  0  0
   22.9251   -4.3477   -7.2319 H   0  0  0  0  0  0  0  0  0  0  0  0
   23.2533   -4.4265   -8.9828 H   0  0  0  0  0  0  0  0  0  0  0  0
   27.0004   -5.4703   -8.3365 H   0  0  0  0  0  0  0  0  0  0  0  0
   26.9840   -3.8030   -7.6994 H   0  0  0  0  0  0  0  0  0  0  0  0
   26.2583   -4.5255   -1.3565 H   0  0  0  0  0  0  0  0  0  0  0  0
   26.3732   -3.0758   -2.3559 H   0  0  0  0  0  0  0  0  0  0  0  0
   27.8209   -2.2569   -0.9111 H   0  0  0  0  0  0  0  0  0  0  0  0
   27.6326   -3.7111    0.1037 H   0  0  0  0  0  0  0  0  0  0  0  0
   25.0342   -6.7779   -4.7684 H   0  0  0  0  0  0  0  0  0  0  0  0
   23.5426   -5.8532   -5.0512 H   0  0  0  0  0  0  0  0  0  0  0  0
   25.2689   -7.1051   -7.5381 H   0  0  0  0  0  0  0  0  0  0  0  0
   25.2116   -5.6762   -8.5369 H   0  0  0  0  0  0  0  0  0  0  0  0
   24.9084   -4.2406   -6.5614 H   0  0  0  0  0  0  0  0  0  0  0  0
   30.3304   -3.2256   -2.1845 H   0  0  0  0  0  0  0  0  0  0  0  0
  1 54  1  0  0  0  0
  1 52  1  0  0  0  0
  2 55  1  0  0  0  0
  2  6  1  0  0  0  0
  3 46  1  0  0  0  0
  3 58  1  0  0  0  0
  4 62  1  0  0  0  0
  4 61  1  0  0  0  0
  5 65  1  0  0  0  0
  5  1  1  0  0  0  0
  6 67  1  0  0  0  0
  6 66  1  0  0  0  0
  7 68  1  0  0  0  0
  7  5  1  0  0  0  0
  8  6  1  0  0  0  0
  8 10  1  0  0  0  0
  9 73  1  0  0  0  0
  9  7  1  0  0  0  0
 10 75  1  0  0  0  0
 10 74  1  0  0  0  0
 11 76  1  0  0  0  0
 11  9  1  0  0  0  0
 12 10  1  0  0  0  0
 12 14  1  0  0  0  0
 13 81  1  0  0  0  0
 13 11  1  0  0  0  0
 14 83  1  0  0  0  0
 14 82  1  0  0  0  0
 15 84  1  0  0  0  0
 15 13  1  0  0  0  0
 16 14  1  0  0  0  0
 16 18  1  0  0  0  0
 17 89  1  0  0  0  0
 17 15  1  0  0  0  0
 18 91  1  0  0  0  0
 18 90  1  0  0  0  0
 19 17  1  0  0  0  0
 20 18  1  0  0  0  0
 20 22  2  0  0  0  0
 21 23  1  0  0  0  0
 21 19  2  0  0  0  0
 22 24  1  0  0  0  0
 23 97  1  0  0  0  0
 23 96  1  0  0  0  0
 24 98  1  0  0  0  0
 24 26  1  0  0  0  0
 25101  1  0  0  0  0
 25 23  1  0  0  0  0
 26102  1  0  0  0  0
 26103  1  0  0  0  0
 27 29  1  0  0  0  0
 27 25  1  0  0  0  0
 28 26  1  0  0  0  0
 28107  1  0  0  0  0
 29108  1  0  0  0  0
 29109  1  0  0  0  0
 30 28  1  0  0  0  0
 30110  1  0  0  0  0
 31 33  1  0  0  0  0
 31 29  1  0  0  0  0
 32 30  1  0  0  0  0
 32115  1  0  0  0  0
 33116  1  0  0  0  0
 33117  1  0  0  0  0
 34 32  1  0  0  0  0
 34118  1  0  0  0  0
 35 39  1  0  0  0  0
 35 33  1  0  0  0  0
 36 34  1  0  0  0  0
 36123  1  0  0  0  0
 37124  1  0  0  0  0
 37 41  1  0  0  0  0
 38126  1  0  0  0  0
 38127  1  0  0  0  0
 39 49  1  0  0  0  0
 39128  1  0  0  0  0
 40 36  1  0  0  0  0
 40 50  1  0  0  0  0
 41 48  1  0  0  0  0
 41132  1  0  0  0  0
 42 38  1  0  0  0  0
 42135  1  0  0  0  0
 43136  1  0  0  0  0
 43 46  1  0  0  0  0
 44138  1  0  0  0  0
 44 45  1  0  0  0  0
 45140  1  6  0  0  0
 45 50  1  0  0  0  0
 45 43  1  0  0  0  0
 46 37  1  0  0  0  0
 46  4  1  0  0  0  0
 47 38  1  0  0  0  0
 48 42  1  0  0  0  0
 49 44  1  0  0  0  0
 53  1  1  0  0  0  0
 56  2  1  0  0  0  0
 57  2  1  0  0  0  0
 59  3  1  0  0  0  0
 60  3  1  0  0  0  0
 63  4  1  0  0  0  0
 64  5  1  0  0  0  0
 69  7  1  0  0  0  0
 70  8  1  0  0  0  0
 71  8  1  0  0  0  0
 72  9  1  0  0  0  0
 77 11  1  0  0  0  0
 78 12  1  0  0  0  0
 79 12  1  0  0  0  0
 80 13  1  0  0  0  0
 85 15  1  0  0  0  0
 86 16  1  0  0  0  0
 87 16  1  0  0  0  0
 88 17  1  0  0  0  0
 92 19  1  0  0  0  0
 93 20  1  0  0  0  0
 94 21  1  0  0  0  0
 95 22  1  0  0  0  0
 99 24  1  0  0  0  0
100 25  1  0  0  0  0
104 27  1  0  0  0  0
105 27  1  0  0  0  0
106 28  1  0  0  0  0
111 30  1  0  0  0  0
112 31  1  0  0  0  0
113 31  1  0  0  0  0
114 32  1  0  0  0  0
119 34  1  0  0  0  0
120 35  1  0  0  0  0
121 35  1  0  0  0  0
122 36  1  0  0  0  0
125 37  1  0  0  0  0
129 39  1  0  0  0  0
130 40  1  0  0  0  0
131 40  1  0  0  0  0
133 41  1  0  0  0  0
134 42  1  0  0  0  0
137 43  1  0  0  0  0
139 44  1  0  0  0  0
141 47  1  0  0  0  0
M  END
