alicina.xyz
 OpenBabel10242511033D

 19 18  0  0  0  0  0  0  0  0999 V2000
    1.4663   -0.1399    0.2397 C   0  0  0  0  0  0  0  0  0  0  0  0
    5.8646    5.2421   -3.6332 C   0  0  0  0  0  0  0  0  0  0  0  0
    2.4991    0.6952    0.4158 C   0  0  0  0  0  0  0  0  0  0  0  0
    6.3730    4.3631   -2.7603 C   0  0  0  0  0  0  0  0  0  0  0  0
    3.2919    1.3067   -0.6972 C   0  0  0  0  0  0  0  0  0  0  0  0
    5.5580    3.5033   -1.8404 C   0  0  0  0  0  0  0  0  0  0  0  0
    7.3267    1.4649   -1.8249 O   0  0  0  0  0  0  0  0  0  0  0  0
    5.0351    0.8507   -0.5229 S   0  0  0  0  0  0  0  0  0  0  0  0
    5.8846    1.7307   -2.1436 S   0  0  1  0  0  0  0  0  0  0  0  0
    0.9270   -0.5417    1.0930 H   0  0  0  0  0  0  0  0  0  0  0  0
    1.1372   -0.4484   -0.7485 H   0  0  0  0  0  0  0  0  0  0  0  0
    6.5219    5.8400   -4.2589 H   0  0  0  0  0  0  0  0  0  0  0  0
    4.7954    5.3925   -3.7476 H   0  0  0  0  0  0  0  0  0  0  0  0
    2.7790    0.9699    1.4318 H   0  0  0  0  0  0  0  0  0  0  0  0
    7.4549    4.2591   -2.6820 H   0  0  0  0  0  0  0  0  0  0  0  0
    3.1856    2.3937   -0.6373 H   0  0  0  0  0  0  0  0  0  0  0  0
    2.9265    0.9801   -1.6764 H   0  0  0  0  0  0  0  0  0  0  0  0
    4.4883    3.6761   -1.9913 H   0  0  0  0  0  0  0  0  0  0  0  0
    5.8117    3.7361   -0.8016 H   0  0  0  0  0  0  0  0  0  0  0  0
  1  3  2  0  0  0  0
  1 10  1  0  0  0  0
  2  4  2  0  0  0  0
  3 14  1  0  0  0  0
  4 15  1  0  0  0  0
  4  6  1  0  0  0  0
  5 16  1  0  0  0  0
  5  8  1  0  0  0  0
  5  3  1  0  0  0  0
  6 19  1  0  0  0  0
  9  6  1  0  0  0  0
  9  7  2  1  0  0  0
  9  8  1  0  0  0  0
 11  1  1  0  0  0  0
 12  2  1  0  0  0  0
 13  2  1  0  0  0  0
 17  5  1  0  0  0  0
 18  6  1  0  0  0  0
M  END
