
  CDK     10232511272D

 14 15  0  0  0  0  0  0  0  0999 V2000
    2.2989   -4.7500    0.0000 C   0  0  0  0  0  0  0  0  0  0  0  0
    2.2989   -3.2500    0.0000 N   0  0  0  0  0  0  0  0  0  0  0  0
    4.8971   -4.7500    0.0000 C   0  0  0  0  0  0  0  0  0  0  0  0
    4.8971   -3.2500    0.0000 C   0  0  0  0  0  0  0  0  0  0  0  0
    3.5980   -5.5000    0.0000 N   0  0  0  0  0  0  0  0  0  0  0  0
    3.5980   -2.5000    0.0000 C   0  0  0  0  0  0  0  0  0  0  0  0
    6.3238   -2.7865    0.0000 N   0  0  0  0  0  0  0  0  0  0  0  0
    6.3238   -5.2136    0.0000 N   0  0  0  0  0  0  0  0  0  0  0  0
    7.2055   -4.0000    0.0000 C   0  0  0  0  0  0  0  0  0  0  0  0
    1.0000   -5.5000    0.0000 O   0  0  0  0  0  0  0  0  0  0  0  0
    3.5982   -1.0000    0.0000 O   0  0  0  0  0  0  0  0  0  0  0  0
    3.5982   -7.0000    0.0000 C   0  0  0  0  0  0  0  0  0  0  0  0
    6.7873   -1.3600    0.0000 C   0  0  0  0  0  0  0  0  0  0  0  0
    1.0000   -2.5000    0.0000 C   0  0  0  0  0  0  0  0  0  0  0  0
 10  1  2  0  0  0  0
  1  2  1  0  0  0  0
 14  2  1  0  0  0  0
  8  3  1  0  0  0  0
  4  3  2  0  0  0  0
  7  4  1  0  0  0  0
  1  5  1  0  0  0  0
  5  3  1  0  0  0  0
 12  5  1  0  0  0  0
  6  2  1  0  0  0  0
  6  4  1  0  0  0  0
 11  6  2  0  0  0  0
  9  7  1  0  0  0  0
 13  7  1  0  0  0  0
  9  8  2  0  0  0  0
M  END
