celulosa.xyz
 OpenBabel10242511033D

 51 52  0  0  1  0  0  0  0  0999 V2000
    6.2758   -3.0806   -0.6552 C   0  0  0  0  0  0  0  0  0  0  0  0
    1.3379   -9.6480    1.0798 C   0  0  0  0  0  0  0  0  0  0  0  0
    2.8952   -1.5499    2.6455 C   0  0  0  0  0  0  0  0  0  0  0  0
   -0.5990   -5.8515    3.1759 C   0  0  0  0  0  0  0  0  0  0  0  0
    3.5968   -2.6827    1.8743 C   0  0  2  0  0  0  0  0  0  0  0  0
    0.4169   -5.6844    2.0354 C   0  0  2  0  0  0  0  0  0  0  0  0
    3.5226   -1.6973   -0.4229 C   0  0  1  0  0  0  0  0  0  0  0  0
   -1.1877   -5.5414    0.1168 C   0  0  1  0  0  0  0  0  0  0  0  0
   -0.7379   -6.9346   -0.3356 C   0  0  2  0  0  0  0  0  0  0  0  0
    2.5391   -2.8009   -0.8422 C   0  0  2  0  0  0  0  0  0  0  0  0
    4.4660   -2.1993    0.6893 C   0  0  2  0  0  0  0  0  0  0  0  0
   -0.0968   -4.7801    0.8988 C   0  0  2  0  0  0  0  0  0  0  0  0
   -0.0508   -7.7218    0.8061 C   0  0  1  0  0  0  0  0  0  0  0  0
    1.7665   -3.3090    0.3969 C   0  0  2  0  0  0  0  0  0  0  0  0
    3.8230   -0.6172    3.1737 O   0  0  0  0  0  0  0  0  0  0  0  0
   -0.9145   -4.5943    3.7636 O   0  0  0  0  0  0  0  0  0  0  0  0
    4.2387   -1.1838   -1.5510 O   0  0  0  0  0  0  0  0  0  0  0  0
   -1.5956   -4.7722   -1.0232 O   0  0  0  0  0  0  0  0  0  0  0  0
    0.1397   -6.7978   -1.4764 O   0  0  0  0  0  0  0  0  0  0  0  0
    3.2734   -3.8444   -1.5066 O   0  0  0  0  0  0  0  0  0  0  0  0
    5.2545   -3.3495    0.2991 O   0  0  0  0  0  0  0  0  0  0  0  0
    0.6336   -8.8157    0.1694 O   0  0  0  0  0  0  0  0  0  0  0  0
    0.8888   -6.9397    1.5403 O   0  0  0  0  0  0  0  0  0  0  0  0
    2.6505   -3.6849    1.4557 O   0  0  0  0  0  0  0  0  0  0  0  0
    0.9617   -4.4236   -0.0100 O   0  0  0  0  0  0  0  0  0  0  0  0
    6.9777   -3.9204   -0.6465 H   0  0  0  0  0  0  0  0  0  0  0  0
    6.8234   -2.1652   -0.4170 H   0  0  0  0  0  0  0  0  0  0  0  0
    5.8575   -3.0294   -1.6613 H   0  0  0  0  0  0  0  0  0  0  0  0
    2.0174  -10.2802    0.5018 H   0  0  0  0  0  0  0  0  0  0  0  0
    0.6358  -10.2908    1.6198 H   0  0  0  0  0  0  0  0  0  0  0  0
    1.9405   -9.0724    1.7886 H   0  0  0  0  0  0  0  0  0  0  0  0
    2.2936   -1.9618    3.4626 H   0  0  0  0  0  0  0  0  0  0  0  0
    2.1989   -0.9973    2.0101 H   0  0  0  0  0  0  0  0  0  0  0  0
   -0.2038   -6.5147    3.9520 H   0  0  0  0  0  0  0  0  0  0  0  0
   -1.5337   -6.3032    2.8313 H   0  0  0  0  0  0  0  0  0  0  0  0
    4.2645   -3.1909    2.5815 H   0  0  0  0  0  0  0  0  0  0  0  0
    1.2931   -5.2173    2.4882 H   0  0  0  0  0  0  0  0  0  0  0  0
    2.9516   -0.8435   -0.0412 H   0  0  0  0  0  0  0  0  0  0  0  0
   -2.0741   -5.6482    0.7535 H   0  0  0  0  0  0  0  0  0  0  0  0
   -1.5933   -7.5053   -0.7091 H   0  0  0  0  0  0  0  0  0  0  0  0
    1.8363   -2.4196   -1.5975 H   0  0  0  0  0  0  0  0  0  0  0  0
    5.1590   -1.4105    1.0087 H   0  0  0  0  0  0  0  0  0  0  0  0
   -0.5377   -3.8532    1.2838 H   0  0  0  0  0  0  0  0  0  0  0  0
   -0.8048   -8.1226    1.4967 H   0  0  0  0  0  0  0  0  0  0  0  0
    1.1099   -2.5056    0.7520 H   0  0  0  0  0  0  0  0  0  0  0  0
    4.1085   -0.9400    4.0473 H   0  0  0  0  0  0  0  0  0  0  0  0
   -0.1265   -4.2951    4.2522 H   0  0  0  0  0  0  0  0  0  0  0  0
    4.1310   -1.8435   -2.2645 H   0  0  0  0  0  0  0  0  0  0  0  0
   -0.8544   -4.9019   -1.6566 H   0  0  0  0  0  0  0  0  0  0  0  0
    0.7213   -7.5855   -1.4352 H   0  0  0  0  0  0  0  0  0  0  0  0
    3.6888   -4.3732   -0.7911 H   0  0  0  0  0  0  0  0  0  0  0  0
  1 26  1  0  0  0  0
  1 27  1  0  0  0  0
  1 21  1  0  0  0  0
  2 30  1  0  0  0  0
  2 31  1  0  0  0  0
  3 15  1  0  0  0  0
  3 32  1  0  0  0  0
  4 16  1  0  0  0  0
  4 34  1  0  0  0  0
  5 36  1  1  0  0  0
  5  3  1  0  0  0  0
  6 37  1  1  0  0  0
  6  4  1  0  0  0  0
  7 38  1  1  0  0  0
  7 11  1  0  0  0  0
  8 39  1  1  0  0  0
  8 12  1  0  0  0  0
  9 40  1  6  0  0  0
  9  8  1  0  0  0  0
  9 13  1  0  0  0  0
 10 41  1  6  0  0  0
 10  7  1  0  0  0  0
 10 14  1  0  0  0  0
 11 42  1  1  0  0  0
 11  5  1  0  0  0  0
 12 43  1  1  0  0  0
 12  6  1  0  0  0  0
 13 44  1  1  0  0  0
 13 23  1  0  0  0  0
 14 45  1  1  0  0  0
 14 24  1  0  0  0  0
 15 46  1  0  0  0  0
 16 47  1  0  0  0  0
 17  7  1  0  0  0  0
 18  8  1  0  0  0  0
 19 50  1  0  0  0  0
 19  9  1  0  0  0  0
 20 10  1  0  0  0  0
 20 51  1  0  0  0  0
 21 11  1  0  0  0  0
 22 13  1  0  0  0  0
 22  2  1  0  0  0  0
 23  6  1  0  0  0  0
 24  5  1  0  0  0  0
 25 14  1  0  0  0  0
 25 12  1  0  0  0  0
 28  1  1  0  0  0  0
 29  2  1  0  0  0  0
 33  3  1  0  0  0  0
 35  4  1  0  0  0  0
 48 17  1  0  0  0  0
 49 18  1  0  0  0  0
M  END
