clorofila-a.xyz
 OpenBabel10242511043D

137142  0  0  1  0  0  0  0  0999 V2000
    5.1742   -0.0472   -0.0970 C   0  0  0  0  0  0  0  0  0  0  0  0
    3.8188    0.1943    0.5027 C   0  0  0  0  0  0  0  0  0  0  0  0
    2.6770    0.4405   -0.4719 C   0  0  0  0  0  0  0  0  0  0  0  0
    1.8020    1.2931    0.0948 C   0  0  0  0  0  0  0  0  0  0  0  0
    0.8862    0.3357    0.7914 C   0  0  0  0  0  0  0  0  0  0  0  0
    0.8031   -0.7243   -0.0002 N   0  0  0  0  0  0  0  0  0  0  0  0
    1.9812   -0.7621   -0.7812 C   0  0  0  0  0  0  0  0  0  0  0  0
    2.6587   -1.8600   -1.2144 C   0  0  0  0  0  0  0  0  0  0  0  0
    2.3281   -3.1048   -0.4717 C   0  0  0  0  0  0  0  0  0  0  0  0
    3.1862   -3.7664    0.4098 C   0  0  0  0  0  0  0  0  0  0  0  0
    2.3662   -3.8747    1.5154 C   0  0  0  0  0  0  0  0  0  0  0  0
    1.0981   -3.5415    1.1702 C   0  0  0  0  0  0  0  0  0  0  0  0
    1.0389   -3.2160   -0.1093 N   0  0  0  0  0  0  0  0  0  0  0  0
    0.0507   -3.5903    2.2266 C   0  0  0  0  0  0  0  0  0  0  0  0
   -1.2850   -3.3147    1.9865 C   0  0  0  0  0  0  0  0  0  0  0  0
   -1.9142   -2.5669    0.8018 C   0  0  0  0  0  0  0  0  0  0  0  0
   -3.1820   -1.8346    1.3098 C   0  0  0  0  0  0  0  0  0  0  0  0
   -3.0879   -2.3697    2.7135 C   0  0  0  0  0  0  0  0  0  0  0  0
   -2.3386   -3.4378    2.8600 N   0  0  0  0  0  2  0  0  0  0  0  0
   -3.4682   -1.4446    3.8223 C   0  0  0  0  0  0  0  0  0  0  0  0
   -2.2434   -0.8672    3.9991 C   0  0  0  0  0  0  0  0  0  0  0  0
   -1.1383   -1.7051    4.4724 C   0  0  0  0  0  0  0  0  0  0  0  0
   -0.0379   -0.8948    4.4538 C   0  0  0  0  0  0  0  0  0  0  0  0
   -0.4352    0.1447    3.3436 C   0  0  0  0  0  0  0  0  0  0  0  0
    0.0031    0.5739    2.0802 C   0  0  0  0  0  0  0  0  0  0  0  0
   -1.7622    0.3695    3.6905 N   0  0  0  0  0  0  0  0  0  0  0  0
    0.1765   -0.5712    5.9358 C   0  0  0  0  0  3  0  0  0  0  0  0
    0.4804   -1.3616    7.0007 C   0  0  0  0  0  3  0  0  0  0  0  0
   -1.4479   -2.9668    5.2342 C   0  0  0  0  0  0  0  0  0  0  0  0
   -3.3170   -0.3076    1.1070 C   0  0  0  0  0  0  0  0  0  0  0  0
   -2.3618   -3.5762   -0.2454 C   0  0  0  0  0  0  0  0  0  0  0  0
   -1.2287   -4.4426   -0.7364 C   0  0  0  0  0  0  0  0  0  0  0  0
   -1.5776   -5.5251   -1.6378 C   0  0  0  0  0  0  0  0  0  0  0  0
   -1.2303   -6.6608   -1.5451 O   0  0  0  0  0  0  0  0  0  0  0  0
   -2.3846   -4.9988   -2.6174 O   0  0  0  0  0  0  0  0  0  0  0  0
   -3.3767   -5.8789   -2.9522 C   0  0  0  0  0  0  0  0  0  0  0  0
   -4.6456   -5.1209   -2.7952 C   0  0  0  0  0  0  0  0  0  0  0  0
   -5.8417   -5.6929   -3.0312 C   0  0  0  0  0  0  0  0  0  0  0  0
   -5.9513   -7.1541   -3.3951 C   0  0  0  0  0  0  0  0  0  0  0  0
   -7.1076   -4.9023   -2.8789 C   0  0  0  0  0  0  0  0  0  0  0  0
   -8.1613   -5.5451   -1.9807 C   0  0  0  0  0  0  0  0  0  0  0  0
   -7.7085   -5.6670   -0.5256 C   0  0  0  0  0  0  0  0  0  0  0  0
   -8.8033   -6.2575    0.3861 C   0  0  1  0  0  0  0  0  0  0  0  0
   -9.1846   -7.6809   -0.0294 C   0  0  0  0  0  0  0  0  0  0  0  0
   -8.3618   -6.2583    1.8605 C   0  0  0  0  0  0  0  0  0  0  0  0
   -8.1382   -4.8389    2.3793 C   0  0  0  0  0  0  0  0  0  0  0  0
   -7.6983   -4.8331    3.8353 C   0  0  0  0  0  0  0  0  0  0  0  0
   -7.3332   -3.4199    4.3328 C   0  0  1  0  0  0  0  0  0  0  0  0
   -8.5322   -2.4662    4.2367 C   0  0  0  0  0  0  0  0  0  0  0  0
   -6.8071   -3.4618    5.7841 C   0  0  0  0  0  0  0  0  0  0  0  0
   -5.5396   -4.3129    5.9394 C   0  0  0  0  0  0  0  0  0  0  0  0
   -5.0666   -4.4142    7.3971 C   0  0  0  0  0  0  0  0  0  0  0  0
   -3.9297   -5.4462    7.6037 C   0  0  0  0  0  0  0  0  0  0  0  0
   -2.7691   -5.1506    6.6918 C   0  0  0  0  0  0  0  0  0  0  0  0
   -3.3623   -5.3794    9.0227 C   0  0  0  0  0  0  0  0  0  0  0  0
    1.0159   -3.9431    3.4791 C   0  0  2  0  0  0  0  0  0  0  0  0
    2.4398   -4.1540    2.9089 C   0  0  0  0  0  0  0  0  0  0  0  0
    3.4358   -4.4451    3.5680 O   0  0  0  0  0  0  0  0  0  0  0  0
    0.7187   -5.1372    4.3434 C   0  0  0  0  0  0  0  0  0  0  0  0
    0.3324   -6.2143    3.8817 O   0  0  0  0  0  0  0  0  0  0  0  0
    1.1103   -4.9155    5.6289 O   0  0  0  0  0  0  0  0  0  0  0  0
    0.9529   -5.9763    6.5694 C   0  0  0  0  0  0  0  0  0  0  0  0
    4.6642   -3.9909    0.3544 C   0  0  0  0  0  0  0  0  0  0  0  0
    1.8472    2.6629   -0.4548 C   0  0  0  0  0  0  0  0  0  0  0  0
   -0.4000   -1.4706   -1.2332 Mg  0  0  0  0  0  1  0  0  0  0  0  0
    5.8723   -0.1826    0.7316 H   0  0  0  0  0  0  0  0  0  0  0  0
    5.4859    0.8049   -0.7022 H   0  0  0  0  0  0  0  0  0  0  0  0
    5.2194   -0.9495   -0.7075 H   0  0  0  0  0  0  0  0  0  0  0  0
    3.8889    1.0704    1.1560 H   0  0  0  0  0  0  0  0  0  0  0  0
    3.5519   -0.6448    1.1636 H   0  0  0  0  0  0  0  0  0  0  0  0
    3.6356   -1.8210   -1.6830 H   0  0  0  0  0  0  0  0  0  0  0  0
   -1.2360   -1.8070    0.4569 H   0  0  0  0  0  0  0  0  0  0  0  0
   -4.0893   -2.2456    0.8586 H   0  0  0  0  0  0  0  0  0  0  0  0
   -4.3606   -0.8638    3.6261 H   0  0  0  0  0  0  0  0  0  0  0  0
   -0.6452    1.3988    1.7600 H   0  0  0  0  0  0  0  0  0  0  0  0
   -0.2887    0.3749    6.2007 H   0  0  0  0  0  0  0  0  0  0  0  0
    0.7997   -2.4038    6.9590 H   0  0  0  0  0  0  0  0  0  0  0  0
    0.2649   -1.0050    8.0156 H   0  0  0  0  0  0  0  0  0  0  0  0
   -1.2289   -3.8631    4.6604 H   0  0  0  0  0  0  0  0  0  0  0  0
   -2.5197   -3.0248    5.4134 H   0  0  0  0  0  0  0  0  0  0  0  0
   -0.9131   -3.1401    6.1570 H   0  0  0  0  0  0  0  0  0  0  0  0
   -2.4409    0.2660    1.3819 H   0  0  0  0  0  0  0  0  0  0  0  0
   -4.1466    0.1042    1.7009 H   0  0  0  0  0  0  0  0  0  0  0  0
   -3.5173   -0.0304    0.0700 H   0  0  0  0  0  0  0  0  0  0  0  0
   -2.8236   -3.0250   -1.0760 H   0  0  0  0  0  0  0  0  0  0  0  0
   -3.1464   -4.2151    0.1811 H   0  0  0  0  0  0  0  0  0  0  0  0
   -0.7203   -4.9428    0.0995 H   0  0  0  0  0  0  0  0  0  0  0  0
   -0.5713   -3.8307   -1.3530 H   0  0  0  0  0  0  0  0  0  0  0  0
   -3.4093   -6.7635   -2.2937 H   0  0  0  0  0  0  0  0  0  0  0  0
   -3.2115   -6.1826   -3.9863 H   0  0  0  0  0  0  0  0  0  0  0  0
   -4.6045   -4.0804   -2.4906 H   0  0  0  0  0  0  0  0  0  0  0  0
   -4.9828   -7.6489   -3.5230 H   0  0  0  0  0  0  0  0  0  0  0  0
   -6.4754   -7.2456   -4.3483 H   0  0  0  0  0  0  0  0  0  0  0  0
   -6.4753   -7.7207   -2.6216 H   0  0  0  0  0  0  0  0  0  0  0  0
   -7.5275   -4.7794   -3.8841 H   0  0  0  0  0  0  0  0  0  0  0  0
   -6.8972   -3.8904   -2.5087 H   0  0  0  0  0  0  0  0  0  0  0  0
   -8.4273   -6.5237   -2.3871 H   0  0  0  0  0  0  0  0  0  0  0  0
   -9.0670   -4.9291   -2.0187 H   0  0  0  0  0  0  0  0  0  0  0  0
   -7.4402   -4.6586   -0.1937 H   0  0  0  0  0  0  0  0  0  0  0  0
   -6.7981   -6.2732   -0.4412 H   0  0  0  0  0  0  0  0  0  0  0  0
   -9.7008   -5.6314    0.2998 H   0  0  0  0  0  0  0  0  0  0  0  0
   -8.3165   -8.3477   -0.0029 H   0  0  0  0  0  0  0  0  0  0  0  0
   -9.6041   -7.7049   -1.0390 H   0  0  0  0  0  0  0  0  0  0  0  0
   -9.9500   -8.0880    0.6392 H   0  0  0  0  0  0  0  0  0  0  0  0
   -7.4481   -6.8544    1.9809 H   0  0  0  0  0  0  0  0  0  0  0  0
   -9.1356   -6.7395    2.4731 H   0  0  0  0  0  0  0  0  0  0  0  0
   -9.0653   -4.2724    2.2506 H   0  0  0  0  0  0  0  0  0  0  0  0
   -7.3567   -4.3365    1.8026 H   0  0  0  0  0  0  0  0  0  0  0  0
   -6.8243   -5.4882    3.9016 H   0  0  0  0  0  0  0  0  0  0  0  0
   -8.4772   -5.2708    4.4705 H   0  0  0  0  0  0  0  0  0  0  0  0
   -6.5391   -3.0170    3.6892 H   0  0  0  0  0  0  0  0  0  0  0  0
   -9.3805   -2.8371    4.8217 H   0  0  0  0  0  0  0  0  0  0  0  0
   -8.8665   -2.3402    3.2016 H   0  0  0  0  0  0  0  0  0  0  0  0
   -8.2714   -1.4686    4.6036 H   0  0  0  0  0  0  0  0  0  0  0  0
   -7.5921   -3.8478    6.4447 H   0  0  0  0  0  0  0  0  0  0  0  0
   -6.5877   -2.4374    6.1121 H   0  0  0  0  0  0  0  0  0  0  0  0
   -4.7595   -3.8687    5.3107 H   0  0  0  0  0  0  0  0  0  0  0  0
   -5.7048   -5.3296    5.5758 H   0  0  0  0  0  0  0  0  0  0  0  0
   -5.9102   -4.6986    8.0352 H   0  0  0  0  0  0  0  0  0  0  0  0
   -4.7398   -3.4181    7.7233 H   0  0  0  0  0  0  0  0  0  0  0  0
   -4.2909   -6.4573    7.3900 H   0  0  0  0  0  0  0  0  0  0  0  0
   -2.4990   -4.1290    6.9458 H   0  0  0  0  0  0  0  0  0  0  0  0
   -3.0237   -5.2545    5.6333 H   0  0  0  0  0  0  0  0  0  0  0  0
   -1.8867   -5.7622    6.8810 H   0  0  0  0  0  0  0  0  0  0  0  0
   -3.0745   -4.3523    9.2810 H   0  0  0  0  0  0  0  0  0  0  0  0
   -2.4540   -5.9912    9.1005 H   0  0  0  0  0  0  0  0  0  0  0  0
   -4.0815   -5.7393    9.7579 H   0  0  0  0  0  0  0  0  0  0  0  0
    1.1388   -3.0661    4.1218 H   0  0  0  0  0  0  0  0  0  0  0  0
    0.3963   -5.5842    7.4246 H   0  0  0  0  0  0  0  0  0  0  0  0
    1.9391   -6.2893    6.9222 H   0  0  0  0  0  0  0  0  0  0  0  0
    0.4174   -6.8370    6.1635 H   0  0  0  0  0  0  0  0  0  0  0  0
    5.0767   -3.6684   -0.6085 H   0  0  0  0  0  0  0  0  0  0  0  0
    4.8751   -5.0614    0.4699 H   0  0  0  0  0  0  0  0  0  0  0  0
    5.1839   -3.4487    1.1529 H   0  0  0  0  0  0  0  0  0  0  0  0
    1.8112    3.4202    0.3191 H   0  0  0  0  0  0  0  0  0  0  0  0
    1.1031    2.8388   -1.2409 H   0  0  0  0  0  0  0  0  0  0  0  0
    2.8176    2.7919   -0.9740 H   0  0  0  0  0  0  0  0  0  0  0  0
  1  2  1  0  0  0  0
  1 66  1  0  0  0  0
  2 69  1  0  0  0  0
  2 70  1  0  0  0  0
  3  4  2  0  0  0  0
  3  2  1  0  0  0  0
  4  5  1  0  0  0  0
  5 25  2  0  0  0  0
  6  5  1  0  0  0  0
  7  3  1  0  0  0  0
  7  6  1  0  0  0  0
  8  7  2  0  0  0  0
  8  9  1  0  0  0  0
  9 13  2  0  0  0  0
  9 10  1  0  0  0  0
 10 11  2  0  0  0  0
 11 57  1  0  0  0  0
 12 11  1  0  0  0  0
 12 14  2  0  0  0  0
 13 12  1  0  0  0  0
 14 56  1  0  0  0  0
 15 14  1  0  0  0  0
 15 19  1  0  0  0  0
 16 17  1  0  0  0  0
 16 15  2  0  0  0  0
 17 18  2  0  0  0  0
 18 19  1  0  0  0  0
 18 20  1  0  0  0  0
 20 21  2  0  0  0  0
 21 22  1  0  0  0  0
 22 29  1  0  0  0  0
 23 22  2  0  0  0  0
 23 27  1  0  0  0  0
 24 26  2  0  0  0  0
 24 23  1  0  0  0  0
 25 24  1  0  0  0  0
 26 21  1  0  0  0  0
 27 76  1  0  0  0  0
 27 28  1  0  0  0  0
 28 78  1  0  0  0  0
 29 80  1  0  0  0  0
 29 81  1  0  0  0  0
 30 17  1  0  0  0  0
 30 82  1  0  0  0  0
 30 83  1  0  0  0  0
 31 86  1  0  0  0  0
 31 16  1  0  0  0  0
 32 31  1  0  0  0  0
 32 87  1  0  0  0  0
 33 34  2  0  0  0  0
 33 32  1  0  0  0  0
 35 33  1  0  0  0  0
 36 37  1  0  0  0  0
 36 35  1  0  0  0  0
 36 89  1  0  0  0  0
 37 91  1  0  0  0  0
 38 40  1  0  0  0  0
 38 37  2  0  0  0  0
 39 38  1  0  0  0  0
 39 94  1  0  0  0  0
 40 96  1  0  0  0  0
 40 41  1  0  0  0  0
 41 42  1  0  0  0  0
 42100  1  0  0  0  0
 42 99  1  0  0  0  0
 42 43  1  0  0  0  0
 43101  1  6  0  0  0
 43 45  1  0  0  0  0
 44102  1  0  0  0  0
 44 43  1  0  0  0  0
 44104  1  0  0  0  0
 45105  1  0  0  0  0
 45 46  1  0  0  0  0
 45106  1  0  0  0  0
 46 47  1  0  0  0  0
 47109  1  0  0  0  0
 47 48  1  0  0  0  0
 47110  1  0  0  0  0
 48111  1  6  0  0  0
 48 50  1  0  0  0  0
 49 48  1  0  0  0  0
 49114  1  0  0  0  0
 49112  1  0  0  0  0
 50 51  1  0  0  0  0
 50116  1  0  0  0  0
 50115  1  0  0  0  0
 51 52  1  0  0  0  0
 52 53  1  0  0  0  0
 52120  1  0  0  0  0
 52119  1  0  0  0  0
 53 55  1  0  0  0  0
 54124  1  0  0  0  0
 54122  1  0  0  0  0
 54 53  1  0  0  0  0
 55126  1  0  0  0  0
 55125  1  0  0  0  0
 55127  1  0  0  0  0
 56128  1  1  0  0  0
 56 59  1  0  0  0  0
 57 56  1  0  0  0  0
 57 58  2  0  0  0  0
 59 61  1  0  0  0  0
 60 59  2  0  0  0  0
 61 62  1  0  0  0  0
 62130  1  0  0  0  0
 62129  1  0  0  0  0
 63 10  1  0  0  0  0
 63133  1  0  0  0  0
 63134  1  0  0  0  0
 64  4  1  0  0  0  0
 64135  1  0  0  0  0
 65  6  1  0  0  0  0
 67  1  1  0  0  0  0
 68  1  1  0  0  0  0
 71  8  1  0  0  0  0
 72 16  1  0  0  0  0
 73 17  1  0  0  0  0
 74 20  1  0  0  0  0
 75 25  1  0  0  0  0
 77 28  1  0  0  0  0
 79 29  1  0  0  0  0
 84 30  1  0  0  0  0
 85 31  1  0  0  0  0
 88 32  1  0  0  0  0
 90 36  1  0  0  0  0
 92 39  1  0  0  0  0
 93 39  1  0  0  0  0
 95 40  1  0  0  0  0
 97 41  1  0  0  0  0
 98 41  1  0  0  0  0
103 44  1  0  0  0  0
107 46  1  0  0  0  0
108 46  1  0  0  0  0
113 49  1  0  0  0  0
117 51  1  0  0  0  0
118 51  1  0  0  0  0
121 53  1  0  0  0  0
123 54  1  0  0  0  0
131 62  1  0  0  0  0
132 63  1  0  0  0  0
136 64  1  0  0  0  0
137 64  1  0  0  0  0
M  END
