CO2.xyz
 OpenBabel10242511043D

  3  2  0  0  0  0  0  0  0  0999 V2000
    1.0444    0.0738   -0.0509 C   0  0  0  0  0  0  0  0  0  0  0  0
   -0.1526    0.0738   -0.0509 O   0  0  0  0  0  0  0  0  0  0  0  0
    2.2414    0.0738   -0.0509 O   0  0  0  0  0  0  0  0  0  0  0  0
  1  2  2  0  0  0  0
  1  3  2  0  0  0  0
M  END
