Cu-ftalocianina.xyz
 OpenBabel10242511043D

 57 67  0  0  0  0  0  0  0  0999 V2000
    0.8510    0.4232    1.4140 C   0  0  0  0  0  0  0  0  0  0  0  0
    0.6863   -0.8711    1.9314 C   0  0  0  0  0  0  0  0  0  0  0  0
   -4.4123    4.6261   -2.8030 C   0  0  0  0  0  0  0  0  0  0  0  0
   -5.7861    4.8582   -2.5669 C   0  0  0  0  0  0  0  0  0  0  0  0
   -7.3117   -2.6693    6.8114 C   0  0  0  0  0  0  0  0  0  0  0  0
   -8.0923   -1.5011    6.7662 C   0  0  0  0  0  0  0  0  0  0  0  0
   -9.0518   -1.0793    1.7639 C   0  0  0  0  0  0  0  0  0  0  0  0
   -8.2816   -1.7083    2.7412 C   0  0  0  0  0  0  0  0  0  0  0  0
   -0.1663    1.3486    1.6003 C   0  0  0  0  0  0  0  0  0  0  0  0
   -0.4325   -1.2179    2.7461 C   0  0  0  0  0  0  0  0  0  0  0  0
   -3.6267    3.8115   -1.9495 C   0  0  0  0  0  0  0  0  0  0  0  0
   -6.4049    4.2875   -1.4736 C   0  0  0  0  0  0  0  0  0  0  0  0
   -5.9248   -2.6707    6.4272 C   0  0  0  0  0  0  0  0  0  0  0  0
   -7.4608   -0.2977    6.4847 C   0  0  0  0  0  0  0  0  0  0  0  0
   -8.8148    0.2492    1.4250 C   0  0  0  0  0  0  0  0  0  0  0  0
   -7.2797   -1.0218    3.4359 C   0  0  0  0  0  0  0  0  0  0  0  0
   -1.3231    0.9177    2.2676 C   0  0  0  0  0  0  0  0  0  0  0  0
   -1.4266   -0.2705    3.0153 C   0  0  0  0  0  0  0  0  0  0  0  0
   -4.2592    3.2279   -0.8734 C   0  0  0  0  0  0  0  0  0  0  0  0
   -5.6119    3.4791   -0.6926 C   0  0  0  0  0  0  0  0  0  0  0  0
   -5.3300   -1.4890    5.9703 C   0  0  0  0  0  0  0  0  0  0  0  0
   -6.0984   -0.3370    6.1364 C   0  0  0  0  0  0  0  0  0  0  0  0
   -7.9262    0.9439    2.2380 C   0  0  0  0  0  0  0  0  0  0  0  0
   -7.2080    0.3727    3.2958 C   0  0  0  0  0  0  0  0  0  0  0  0
   -2.6135    0.9502    1.5529 C   0  0  0  0  0  0  0  0  0  0  0  0
   -2.9064   -0.5448    3.1634 C   0  0  0  0  0  0  0  0  0  0  0  0
   -3.9520    2.2051    0.1573 C   0  0  0  0  0  0  0  0  0  0  0  0
   -4.0730   -0.9461    5.2055 C   0  0  0  0  0  0  0  0  0  0  0  0
   -6.0510    2.6760    0.4123 C   0  0  0  0  0  0  0  0  0  0  0  0
   -5.2652    0.7163    5.5914 C   0  0  0  0  0  0  0  0  0  0  0  0
   -7.3538    2.1717    2.0836 C   0  0  0  0  0  0  0  0  0  0  0  0
   -6.5194    1.4847    3.8677 C   0  0  0  0  0  0  0  0  0  0  0  0
   -3.4306   -0.0101    1.9485 N   0  0  0  0  0  4  0  0  0  0  0  0
   -5.0359    1.7485    0.7146 N   0  0  0  0  0  0  0  0  0  0  0  0
   -3.9411    0.3108    5.4977 N   0  0  0  0  0  2  0  0  0  0  0  0
   -6.8435    2.5816    3.2313 N   0  0  0  0  0  0  0  0  0  0  0  0
   -2.7667    1.6210    0.3765 N   0  0  0  0  0  4  0  0  0  0  0  0
   -3.6145   -1.3714    3.9180 N   0  0  0  0  0  0  0  0  0  0  0  0
   -7.2120    2.8632    0.9436 N   0  0  0  0  0  0  0  0  0  0  0  0
   -5.5384    1.6594    4.7745 N   0  0  0  0  0  0  0  0  0  0  0  0
   -3.9833   -0.1578    0.0682 Cu  0  0  0  0  0  0  0  0  0  0  0  0
    1.7000    0.6679    0.7748 H   0  0  0  0  0  0  0  0  0  0  0  0
    1.4111   -1.6313    1.6312 H   0  0  0  0  0  0  0  0  0  0  0  0
   -3.9690    5.0944   -3.6807 H   0  0  0  0  0  0  0  0  0  0  0  0
   -6.3728    5.4894   -3.2306 H   0  0  0  0  0  0  0  0  0  0  0  0
   -7.8091   -3.5906    7.1336 H   0  0  0  0  0  0  0  0  0  0  0  0
   -9.1755   -1.5425    6.9257 H   0  0  0  0  0  0  0  0  0  0  0  0
   -9.8242   -1.6405    1.2439 H   0  0  0  0  0  0  0  0  0  0  0  0
   -8.4588   -2.7594    2.9714 H   0  0  0  0  0  0  0  0  0  0  0  0
   -0.1499    2.2983    1.0682 H   0  0  0  0  0  0  0  0  0  0  0  0
   -0.5691   -2.2660    2.9960 H   0  0  0  0  0  0  0  0  0  0  0  0
   -2.5801    3.6473   -2.1824 H   0  0  0  0  0  0  0  0  0  0  0  0
   -7.4527    4.4341   -1.2401 H   0  0  0  0  0  0  0  0  0  0  0  0
   -5.3813   -3.6041    6.5355 H   0  0  0  0  0  0  0  0  0  0  0  0
   -8.0442    0.6182    6.4216 H   0  0  0  0  0  0  0  0  0  0  0  0
   -9.3200    0.7497    0.6100 H   0  0  0  0  0  0  0  0  0  0  0  0
   -6.6357   -1.6116    4.0555 H   0  0  0  0  0  0  0  0  0  0  0  0
  1  9  2  0  0  0  0
  1  2  1  0  0  0  0
  2 10  2  0  0  0  0
  3  4  1  0  0  0  0
  3 11  2  0  0  0  0
  4 12  2  0  0  0  0
  5 46  1  0  0  0  0
  6  5  1  0  0  0  0
  6 47  1  0  0  0  0
  7  8  1  0  0  0  0
  8 49  1  0  0  0  0
  8 16  2  0  0  0  0
  9 17  1  0  0  0  0
 10 51  1  0  0  0  0
 10 18  1  0  0  0  0
 11 19  1  0  0  0  0
 12 53  1  0  0  0  0
 12 20  1  0  0  0  0
 13 54  1  0  0  0  0
 13  5  2  0  0  0  0
 14  6  2  0  0  0  0
 15  7  2  0  0  0  0
 15 23  1  0  0  0  0
 16 57  1  0  0  0  0
 17 18  2  0  0  0  0
 18 26  1  0  0  0  0
 19 20  2  0  0  0  0
 19 27  1  0  0  0  0
 20 29  1  0  0  0  0
 21 22  1  0  0  0  0
 21 13  1  0  0  0  0
 22 14  1  0  0  0  0
 23 24  2  0  0  0  0
 24 16  1  0  0  0  0
 24 32  1  0  0  0  0
 25 33  2  0  0  0  0
 25 17  1  0  0  0  0
 26 38  2  3  0  0  0
 27 37  2  3  0  0  0
 27 34  1  0  0  0  0
 28 35  1  0  0  0  0
 28 21  2  0  0  0  0
 29 34  1  0  0  0  0
 29 39  2  0  0  0  0
 30 22  2  0  0  0  0
 31 23  1  0  0  0  0
 31 36  2  0  0  0  0
 32 40  2  0  0  0  0
 33 26  1  0  0  0  0
 35 30  1  0  0  0  0
 36 32  1  0  0  0  0
 37 25  1  0  0  0  0
 38 28  1  0  0  0  0
 39 31  1  0  0  0  0
 40 30  1  0  0  0  0
 41 37  1  0  0  0  0
 41 34  1  0  0  0  0
 41 33  1  0  0  0  0
 42  1  1  0  0  0  0
 43  2  1  0  0  0  0
 44  3  1  0  0  0  0
 45  4  1  0  0  0  0
 48  7  1  0  0  0  0
 50  9  1  0  0  0  0
 52 11  1  0  0  0  0
 55 14  1  0  0  0  0
 56 15  1  0  0  0  0
M  END
