etanol.xyz
 OpenBabel10242511043D

  9  8  0  0  0  0  0  0  0  0999 V2000
    1.0334   -0.0579   -0.0802 C   0  0  0  0  0  0  0  0  0  0  0  0
    2.5477   -0.0513   -0.0771 C   0  0  0  0  0  0  0  0  0  0  0  0
    3.0293    0.6527    1.0580 O   0  0  0  0  0  0  0  0  0  0  0  0
    0.6486   -0.6061   -0.9446 H   0  0  0  0  0  0  0  0  0  0  0  0
    0.6414    0.9641   -0.1081 H   0  0  0  0  0  0  0  0  0  0  0  0
    0.6479   -0.5222    0.8335 H   0  0  0  0  0  0  0  0  0  0  0  0
    2.9391    0.4276   -0.9798 H   0  0  0  0  0  0  0  0  0  0  0  0
    2.9347   -1.0736   -0.0336 H   0  0  0  0  0  0  0  0  0  0  0  0
    2.6898    1.5623    1.0049 H   0  0  0  0  0  0  0  0  0  0  0  0
  1  2  1  0  0  0  0
  1  6  1  0  0  0  0
  2  8  1  0  0  0  0
  2  3  1  0  0  0  0
  4  1  1  0  0  0  0
  5  1  1  0  0  0  0
  7  2  1  0  0  0  0
  9  3  1  0  0  0  0
M  END
