glucosa.xyz
 OpenBabel10242511053D

 24 24  0  0  1  0  0  0  0  0999 V2000
    1.4923    0.1827    0.1914 C   0  0  0  0  0  0  0  0  0  0  0  0
    0.4099    1.2755    0.2057 C   0  0  2  0  0  0  0  0  0  0  0  0
   -0.8237    0.9517   -0.6592 C   0  0  2  0  0  0  0  0  0  0  0  0
   -0.5018    1.0748   -2.1623 C   0  0  1  0  0  0  0  0  0  0  0  0
    0.0762    2.4615   -2.4509 C   0  0  2  0  0  0  0  0  0  0  0  0
    1.2506    2.7672   -1.4979 C   0  0  1  0  0  0  0  0  0  0  0  0
    2.5278    0.5153    1.1120 O   0  0  0  0  0  0  0  0  0  0  0  0
   -1.8727    1.8950   -0.3606 O   0  0  0  0  0  0  0  0  0  0  0  0
    0.4037    0.0447   -2.5526 O   0  0  0  0  0  0  0  0  0  0  0  0
   -0.9283    3.4859   -2.3164 O   0  0  0  0  0  0  0  0  0  0  0  0
    1.6213    4.1330   -1.6626 O   0  0  0  0  0  0  0  0  0  0  0  0
    0.9371    2.5711   -0.1232 O   0  0  0  0  0  0  0  0  0  0  0  0
    1.9706    0.0556   -0.7818 H   0  0  0  0  0  0  0  0  0  0  0  0
    1.0676   -0.7793    0.4994 H   0  0  0  0  0  0  0  0  0  0  0  0
    0.0819    1.3828    1.2469 H   0  0  0  0  0  0  0  0  0  0  0  0
   -1.1978   -0.0510   -0.4243 H   0  0  0  0  0  0  0  0  0  0  0  0
   -1.4297    0.9447   -2.7325 H   0  0  0  0  0  0  0  0  0  0  0  0
    0.4364    2.5267   -3.4833 H   0  0  0  0  0  0  0  0  0  0  0  0
    2.1265    2.1606   -1.7526 H   0  0  0  0  0  0  0  0  0  0  0  0
    2.8211    1.4200    0.8851 H   0  0  0  0  0  0  0  0  0  0  0  0
   -1.9336    1.9762    0.6102 H   0  0  0  0  0  0  0  0  0  0  0  0
    0.7049    0.2282   -3.4615 H   0  0  0  0  0  0  0  0  0  0  0  0
   -1.4713    3.2445   -1.5323 H   0  0  0  0  0  0  0  0  0  0  0  0
    0.7680    4.5962   -1.7941 H   0  0  0  0  0  0  0  0  0  0  0  0
  1  2  1  0  0  0  0
  1 14  1  0  0  0  0
  1  7  1  0  0  0  0
  2 15  1  1  0  0  0
  3 16  1  1  0  0  0
  3  8  1  0  0  0  0
  3  2  1  0  0  0  0
  4 17  1  6  0  0  0
  4  3  1  0  0  0  0
  5 18  1  6  0  0  0
  5 10  1  0  0  0  0
  5  4  1  0  0  0  0
  5  6  1  0  0  0  0
  6 19  1  6  0  0  0
  6 12  1  0  0  0  0
  8 21  1  0  0  0  0
  9  4  1  0  0  0  0
 10 23  1  0  0  0  0
 11  6  1  0  0  0  0
 12  2  1  0  0  0  0
 13  1  1  0  0  0  0
 20  7  1  0  0  0  0
 22  9  1  0  0  0  0
 24 11  1  0  0  0  0
M  END
