laurilsulfato-Na.xyz
 OpenBabel10242511063D

 43 41  0  0  0  0  0  0  0  0999 V2000
    0.9540    0.2325   -0.0787 C   0  0  0  0  0  0  0  0  0  0  0  0
    2.4698    0.1304   -0.0493 C   0  0  0  0  0  0  0  0  0  0  0  0
    2.9549   -1.2447    0.4111 C   0  0  0  0  0  0  0  0  0  0  0  0
    4.4807   -1.3117    0.4329 C   0  0  0  0  0  0  0  0  0  0  0  0
    4.9726   -2.6811    0.8989 C   0  0  0  0  0  0  0  0  0  0  0  0
    6.4989   -2.7216    0.9146 C   0  0  0  0  0  0  0  0  0  0  0  0
    7.0009   -4.0823    1.3744 C   0  0  0  0  0  0  0  0  0  0  0  0
    8.5293   -4.1368    1.3654 C   0  0  0  0  0  0  0  0  0  0  0  0
    9.0546   -5.4946    1.8217 C   0  0  0  0  0  0  0  0  0  0  0  0
    8.5960   -6.6350    0.9084 C   0  0  0  0  0  0  0  0  0  0  0  0
    9.0940   -8.0031    1.3711 C   0  0  0  0  0  0  0  0  0  0  0  0
    8.5968   -8.3662    2.7695 C   0  0  0  0  0  0  0  0  0  0  0  0
    6.8781   -9.9440    4.5711 O   0  0  0  0  0  1  0  0  0  0  0  0
    6.9324   -7.5324    5.0567 O   0  0  0  0  0  1  0  0  0  0  0  0
    5.0129   -8.4964    3.8672 O   0  0  0  0  0  1  0  0  0  0  0  0
    7.1797   -8.3333    2.7773 O   0  0  0  0  0  0  0  0  0  0  0  0
    6.4359   -8.6047    4.2037 S   0  0  0  0  0  0  0  0  0  0  0  0
    0.4095   -2.9026   -0.7427 Na  0  0  0  0  0 15  0  0  0  0  0  0
    0.6484    1.2589   -0.3080 H   0  0  0  0  0  0  0  0  0  0  0  0
    0.5166   -0.0481    0.8861 H   0  0  0  0  0  0  0  0  0  0  0  0
    0.5320   -0.4201   -0.8519 H   0  0  0  0  0  0  0  0  0  0  0  0
    2.8627    0.9010    0.6254 H   0  0  0  0  0  0  0  0  0  0  0  0
    2.8628    0.3433   -1.0514 H   0  0  0  0  0  0  0  0  0  0  0  0
    2.5749   -2.0173   -0.2635 H   0  0  0  0  0  0  0  0  0  0  0  0
    2.5600   -1.4615    1.4115 H   0  0  0  0  0  0  0  0  0  0  0  0
    4.8759   -0.5368    1.0986 H   0  0  0  0  0  0  0  0  0  0  0  0
    4.8707   -1.1091   -0.5716 H   0  0  0  0  0  0  0  0  0  0  0  0
    4.5866   -3.4624    0.2315 H   0  0  0  0  0  0  0  0  0  0  0  0
    4.5869   -2.8953    1.9028 H   0  0  0  0  0  0  0  0  0  0  0  0
    6.8892   -1.9420    1.5783 H   0  0  0  0  0  0  0  0  0  0  0  0
    6.8822   -2.5182   -0.0929 H   0  0  0  0  0  0  0  0  0  0  0  0
    6.5852   -4.8387    0.7017 H   0  0  0  0  0  0  0  0  0  0  0  0
    6.6277   -4.3058    2.3817 H   0  0  0  0  0  0  0  0  0  0  0  0
    8.9253   -3.3656    2.0383 H   0  0  0  0  0  0  0  0  0  0  0  0
    8.9110   -3.9147    0.3628 H   0  0  0  0  0  0  0  0  0  0  0  0
    8.7163   -5.6560    2.8506 H   0  0  0  0  0  0  0  0  0  0  0  0
   10.1510   -5.4691    1.8478 H   0  0  0  0  0  0  0  0  0  0  0  0
    8.9417   -6.4453   -0.1147 H   0  0  0  0  0  0  0  0  0  0  0  0
    7.5039   -6.6764    0.8618 H   0  0  0  0  0  0  0  0  0  0  0  0
   10.1882   -8.0348    1.3410 H   0  0  0  0  0  0  0  0  0  0  0  0
    8.7216   -8.7485    0.6573 H   0  0  0  0  0  0  0  0  0  0  0  0
    9.0000   -7.6637    3.5072 H   0  0  0  0  0  0  0  0  0  0  0  0
    8.9517   -9.3672    3.0314 H   0  0  0  0  0  0  0  0  0  0  0  0
  1  2  1  0  0  0  0
  1 20  1  0  0  0  0
  2  3  1  0  0  0  0
  2 22  1  0  0  0  0
  3  4  1  0  0  0  0
  3 25  1  0  0  0  0
  4  5  1  0  0  0  0
  4 26  1  0  0  0  0
  5  6  1  0  0  0  0
  5 29  1  0  0  0  0
  6  7  1  0  0  0  0
  6 30  1  0  0  0  0
  7 33  1  0  0  0  0
  8  7  1  0  0  0  0
  8  9  1  0  0  0  0
  8 34  1  0  0  0  0
  9 37  1  0  0  0  0
  9 36  1  0  0  0  0
 10 11  1  0  0  0  0
 10  9  1  0  0  0  0
 11 12  1  0  0  0  0
 12 16  1  0  0  0  0
 12 43  1  0  0  0  0
 12 42  1  0  0  0  0
 15 17  1  0  0  0  0
 16 17  1  0  0  0  0
 17 13  1  0  0  0  0
 17 14  1  0  0  0  0
 19  1  1  0  0  0  0
 21  1  1  0  0  0  0
 23  2  1  0  0  0  0
 24  3  1  0  0  0  0
 27  4  1  0  0  0  0
 28  5  1  0  0  0  0
 31  6  1  0  0  0  0
 32  7  1  0  0  0  0
 35  8  1  0  0  0  0
 38 10  1  0  0  0  0
 39 10  1  0  0  0  0
 40 11  1  0  0  0  0
 41 11  1  0  0  0  0
M  END
