limoneno.xyz
 OpenBabel10242511063D

 26 26  0  0  1  0  0  0  0  0999 V2000
    1.3552   -0.9169    0.5084 C   0  0  0  0  0  0  0  0  0  0  0  0
    2.5230   -0.0972   -1.5138 C   0  0  0  0  0  0  0  0  0  0  0  0
    5.5827    4.0812    2.4573 C   0  0  0  0  0  0  0  0  0  0  0  0
    3.6063    3.3933    1.1103 C   0  0  0  0  0  0  0  0  0  0  0  0
    5.2129    1.6277    1.8440 C   0  0  0  0  0  0  0  0  0  0  0  0
    2.7101    2.4001    0.4260 C   0  0  0  0  0  0  0  0  0  0  0  0
    4.5093    0.6817    0.8623 C   0  0  0  0  0  0  0  0  0  0  0  0
    2.2455   -0.0683   -0.0341 C   0  0  0  0  0  0  0  0  0  0  0  0
    4.7322    3.0566    1.7641 C   0  0  0  0  0  0  0  0  0  0  0  0
    2.9948    0.9394    0.8327 C   0  0  2  0  0  0  0  0  0  0  0  0
    0.8146   -1.6402   -0.0966 H   0  0  0  0  0  0  0  0  0  0  0  0
    1.1408   -0.9180    1.5729 H   0  0  0  0  0  0  0  0  0  0  0  0
    1.9201   -0.8555   -2.0262 H   0  0  0  0  0  0  0  0  0  0  0  0
    3.5737   -0.3314   -1.7078 H   0  0  0  0  0  0  0  0  0  0  0  0
    2.2844    0.8637   -1.9782 H   0  0  0  0  0  0  0  0  0  0  0  0
    5.1676    5.0906    2.3655 H   0  0  0  0  0  0  0  0  0  0  0  0
    6.5891    4.0947    2.0267 H   0  0  0  0  0  0  0  0  0  0  0  0
    5.6622    3.8493    3.5241 H   0  0  0  0  0  0  0  0  0  0  0  0
    3.2973    4.4346    1.0540 H   0  0  0  0  0  0  0  0  0  0  0  0
    6.2914    1.5864    1.6496 H   0  0  0  0  0  0  0  0  0  0  0  0
    5.0577    1.2679    2.8689 H   0  0  0  0  0  0  0  0  0  0  0  0
    2.8320    2.5459   -0.6530 H   0  0  0  0  0  0  0  0  0  0  0  0
    1.6664    2.6400    0.6640 H   0  0  0  0  0  0  0  0  0  0  0  0
    4.7196   -0.3552    1.1495 H   0  0  0  0  0  0  0  0  0  0  0  0
    4.9378    0.8262   -0.1378 H   0  0  0  0  0  0  0  0  0  0  0  0
    2.6388    0.8250    1.8687 H   0  0  0  0  0  0  0  0  0  0  0  0
  1 12  1  0  0  0  0
  2  8  1  0  0  0  0
  3 18  1  0  0  0  0
  4  9  2  0  0  0  0
  5 21  1  0  0  0  0
  6 23  1  0  0  0  0
  6 10  1  0  0  0  0
  6  4  1  0  0  0  0
  7 24  1  0  0  0  0
  7  5  1  0  0  0  0
  8  1  2  0  0  0  0
  8 10  1  0  0  0  0
  9  5  1  0  0  0  0
  9  3  1  0  0  0  0
 10  7  1  0  0  0  0
 10 26  1  1  0  0  0
 11  1  1  0  0  0  0
 13  2  1  0  0  0  0
 14  2  1  0  0  0  0
 15  2  1  0  0  0  0
 16  3  1  0  0  0  0
 17  3  1  0  0  0  0
 19  4  1  0  0  0  0
 20  5  1  0  0  0  0
 22  6  1  0  0  0  0
 25  7  1  0  0  0  0
M  END
