metano.xyz
 OpenBabel10242511073D

  5  4  0  0  0  0  0  0  0  0999 V2000
    0.9590   -0.0647   -0.0643 C   0  0  0  0  0  0  0  0  0  0  0  0
    2.0512   -0.0647   -0.0643 H   0  0  0  0  0  0  0  0  0  0  0  0
    0.5949   -0.6747    0.7653 H   0  0  0  0  0  0  0  0  0  0  0  0
    0.5949   -0.4782   -1.0073 H   0  0  0  0  0  0  0  0  0  0  0  0
    0.5949    0.9587    0.0492 H   0  0  0  0  0  0  0  0  0  0  0  0
  1  2  1  0  0  0  0
  1  5  1  0  0  0  0
  1  3  1  0  0  0  0
  4  1  1  0  0  0  0
M  END
