SiO2.xyz
 OpenBabel10242511073D

  3  2  0  0  0  0  0  0  0  0999 V2000
    1.1734   -0.0091   -0.0422 O   0  0  0  0  0  1  0  0  0  0  0  0
    3.1610    0.6698   -1.2728 O   0  0  0  0  0  1  0  0  0  0  0  0
    2.6477    0.0022   -0.0626 Si  0  0  0  0  0  2  0  0  0  0  0  0
  2  3  1  0  0  0  0
  3  1  1  0  0  0  0
M  END
