sulfanona-cebolla.xyz
 OpenBabel10242511073D

 11 10  0  0  0  0  0  0  0  0999 V2000
    1.0122   -0.0923   -0.0227 C   0  0  0  0  0  0  0  0  0  0  0  0
    2.5297   -0.0843   -0.0215 C   0  0  0  0  0  0  0  0  0  0  0  0
    3.0338    1.0093   -0.9127 C   0  0  0  0  0  3  0  0  0  0  0  0
    4.3607    3.2015   -1.3752 O   0  0  0  0  0  0  0  0  0  0  0  0
    3.9605    2.2220   -0.3275 S   0  0  0  0  0  3  0  0  0  0  0  0
    0.6340   -0.8985    0.6131 H   0  0  0  0  0  0  0  0  0  0  0  0
    0.6199   -0.2416   -1.0346 H   0  0  0  0  0  0  0  0  0  0  0  0
    0.6139    0.8569    0.3512 H   0  0  0  0  0  0  0  0  0  0  0  0
    2.9021   -1.0356   -0.4164 H   0  0  0  0  0  0  0  0  0  0  0  0
    2.9033    0.0310    1.0009 H   0  0  0  0  0  0  0  0  0  0  0  0
    2.7805    0.9914   -1.9832 H   0  0  0  0  0  0  0  0  0  0  0  0
  1  2  1  0  0  0  0
  1  8  1  0  0  0  0
  1  6  1  0  0  0  0
  2 10  1  0  0  0  0
  3  5  1  0  0  0  0
  3  2  1  0  0  0  0
  4  5  2  0  0  0  0
  7  1  1  0  0  0  0
  9  2  1  0  0  0  0
 11  3  1  0  0  0  0
M  END
